@<TRIPOS>MOLECULE
*****
 80 86 0 0 0
SMALL
GASTEIGER

@<TRIPOS>ATOM
      1 C          -5.5962   -2.0966   -2.3842 C.3     1  UNL1       -0.0380
      2 C          -6.3617   -2.7498   -1.3256 C.ar    1  UNL1       -0.0279
      3 C          -7.6089   -3.2810   -1.6391 C.ar    1  UNL1       -0.0557
      4 C          -8.3365   -3.9460   -0.6958 C.ar    1  UNL1       -0.0433
      5 C          -7.8243   -4.0882    0.5751 C.ar    1  UNL1        0.0279
      6 N          -6.6358   -3.5697    0.8384 N.ar    1  UNL1       -0.2583
      7 C          -5.8704   -2.8937   -0.0753 C.ar    1  UNL1        0.0581
      8 C          -4.6071   -2.3301    0.3913 C.3     1  UNL1        0.0415
      9 N          -4.7269   -1.0333    0.8720 N.3     1  UNL1       -0.2965
     10 C          -5.2751    0.0396    0.1756 C.3     1  UNL1        0.0017
     11 C          -4.1681    0.8536   -0.4891 C.3     1  UNL1       -0.0095
     12 C          -3.1597    1.2834    0.5281 C.3     1  UNL1        0.1240
     13 C          -3.6035    0.8804    1.9163 C.3     1  UNL1       -0.0095
     14 C          -3.8612   -0.6185    1.9396 C.3     1  UNL1        0.0017
     15 C          -1.8970    0.5457    0.2553 C.2     1  UNL1        0.2516
     16 O          -1.8016   -0.6818    0.0484 O.2     1  UNL1       -0.2724
     17 N          -0.8001    1.4248    0.2597 N.am    1  UNL1       -0.1920
     18 C           0.5727    1.0816    0.1572 C.ar    1  UNL1        0.0455
     19 C           1.3073    0.8295    1.2949 C.ar    1  UNL1       -0.0392
     20 C           2.6483    0.4959    1.2037 C.ar    1  UNL1       -0.0523
     21 C           3.2340    0.4199   -0.0330 C.ar    1  UNL1       -0.0178
     22 C           4.6410    0.0742   -0.1402 C.ar    1  UNL1       -0.0178
     23 C           5.0877   -0.6158   -1.2453 C.ar    1  UNL1       -0.0523
     24 C           6.4392   -0.9512   -1.3595 C.ar    1  UNL1       -0.0401
     25 C           7.3782   -0.6257   -0.4089 C.ar    1  UNL1        0.0298
     26 N           8.7524   -0.9795   -0.5179 N.pl3   1  UNL1       -0.3255
     27 C           9.8209   -0.3421    0.2083 C.3     1  UNL1        0.0357
     28 C          10.7020   -1.4055    0.8513 C.3     1  UNL1        0.0634
     29 O          11.1205   -2.3060   -0.1316 O.3     1  UNL1       -0.3767
     30 C          10.0071   -3.0146   -0.5594 C.3     1  UNL1        0.0634
     31 C           9.1432   -2.0669   -1.4066 C.3     1  UNL1        0.0357
     32 C           6.9098    0.0718    0.7018 C.ar    1  UNL1       -0.0401
     33 C           5.5639    0.4125    0.8274 C.ar    1  UNL1       -0.0523
     34 C           2.5203    0.6668   -1.1757 C.ar    1  UNL1       -0.0523
     35 C           1.1807    0.9999   -1.0802 C.ar    1  UNL1       -0.0392
     36 C          -1.3252    2.7252    0.3867 C.2     1  UNL1        0.3219
     37 O          -0.6014    3.7554    0.4235 O.2     1  UNL1       -0.2512
     38 N          -2.7696    2.6603    0.4627 N.am    1  UNL1       -0.2240
     39 C          -3.5301    3.8597    0.4625 C.ar    1  UNL1        0.1364
     40 C          -4.9042    3.8795    0.5565 C.ar    1  UNL1        0.0432
     41 C          -5.6248    5.0675    0.5521 C.ar    1  UNL1        0.2531
     42 O          -6.8757    5.0801    0.6381 O.2     1  UNL1       -0.2678
     43 N          -4.9882    6.2306    0.4552 N.ar    1  UNL1       -0.3133
     44 C          -3.6392    6.2354    0.3618 C.ar    1  UNL1        0.0981
     45 N          -2.9447    5.0897    0.3660 N.ar    1  UNL1       -0.2220
     46 H          -4.5547   -1.8804   -2.1319 H       1  UNL1        0.0278
     47 H          -6.0905   -1.1390   -2.6459 H       1  UNL1        0.0278
     48 H          -5.6877   -2.7166   -3.3156 H       1  UNL1        0.0278
     49 H          -7.9636   -3.1415   -2.6507 H       1  UNL1        0.0621
     50 H          -9.2954   -4.3642   -0.9036 H       1  UNL1        0.0633
     51 H          -8.3685   -4.6101    1.3522 H       1  UNL1        0.0829
     52 H          -4.2596   -2.9815    1.2610 H       1  UNL1        0.0491
     53 H          -3.7757   -2.4885   -0.3501 H       1  UNL1        0.0491
     54 H          -5.7589    0.7095    0.9895 H       1  UNL1        0.0427
     55 H          -6.1225   -0.1668   -0.4759 H       1  UNL1        0.0427
     56 H          -3.6995    0.1482   -1.2291 H       1  UNL1        0.0303
     57 H          -4.5638    1.6781   -1.1152 H       1  UNL1        0.0303
     58 H          -4.4233    1.4771    2.3147 H       1  UNL1        0.0303
     59 H          -2.7438    1.0365    2.6303 H       1  UNL1        0.0303
     60 H          -4.4325   -0.8544    2.8897 H       1  UNL1        0.0427
     61 H          -2.9168   -1.1517    2.0247 H       1  UNL1        0.0427
     62 H           0.8413    0.8908    2.2669 H       1  UNL1        0.0636
     63 H           3.2316    0.2967    2.0864 H       1  UNL1        0.0624
     64 H           4.3906   -0.9022   -2.0312 H       1  UNL1        0.0624
     65 H           6.7697   -1.4863   -2.2374 H       1  UNL1        0.0636
     66 H          10.4929    0.1620   -0.5431 H       1  UNL1        0.0486
     67 H           9.4991    0.3766    0.9697 H       1  UNL1        0.0486
     68 H          11.5863   -0.9350    1.3197 H       1  UNL1        0.0575
     69 H          10.1609   -1.9420    1.6575 H       1  UNL1        0.0575
     70 H          10.2741   -3.8832   -1.1902 H       1  UNL1        0.0575
     71 H           9.3659   -3.2964    0.3048 H       1  UNL1        0.0575
     72 H           9.7380   -1.6766   -2.2739 H       1  UNL1        0.0486
     73 H           8.2980   -2.6487   -1.7982 H       1  UNL1        0.0486
     74 H           7.5827    0.3590    1.4907 H       1  UNL1        0.0636
     75 H           5.1932    0.9562    1.6902 H       1  UNL1        0.0624
     76 H           3.0158    0.5966   -2.1262 H       1  UNL1        0.0624
     77 H           0.6021    1.1981   -1.9662 H       1  UNL1        0.0636
     78 H          -5.4829    2.9858    0.6398 H       1  UNL1        0.0706
     79 H          -5.4869    7.1456    0.4487 H       1  UNL1        0.1698
     80 H          -3.1078    7.1811    0.2823 H       1  UNL1        0.1028
@<TRIPOS>BOND
     1     1     2    1
     2     2     3   ar
     3     3     4   ar
     4     4     5   ar
     5     5     6   ar
     6     6     7   ar
     7     7     8    1
     8     8     9    1
     9     9    10    1
    10    10    11    1
    11    11    12    1
    12    12    13    1
    13    13    14    1
    14    12    15    1
    15    15    16    2
    16    15    17   am
    17    17    18    1
    18    18    19   ar
    19    19    20   ar
    20    20    21   ar
    21    21    22    1
    22    22    23   ar
    23    23    24   ar
    24    24    25   ar
    25    25    26    1
    26    26    27    1
    27    27    28    1
    28    28    29    1
    29    29    30    1
    30    30    31    1
    31    25    32   ar
    32    32    33   ar
    33    21    34   ar
    34    34    35   ar
    35    17    36   am
    36    36    37    2
    37    36    38   am
    38    38    39    1
    39    39    40   ar
    40    40    41   ar
    41    41    42    2
    42    41    43   ar
    43    43    44   ar
    44    44    45   ar
    45     7     2   ar
    46    14     9    1
    47    35    18   ar
    48    45    39   ar
    49    38    12    1
    50    33    22   ar
    51    31    26    1
    52     1    46    1
    53     1    47    1
    54     1    48    1
    55     3    49    1
    56     4    50    1
    57     5    51    1
    58     8    52    1
    59     8    53    1
    60    10    54    1
    61    10    55    1
    62    11    56    1
    63    11    57    1
    64    13    58    1
    65    13    59    1
    66    14    60    1
    67    14    61    1
    68    19    62    1
    69    20    63    1
    70    23    64    1
    71    24    65    1
    72    27    66    1
    73    27    67    1
    74    28    68    1
    75    28    69    1
    76    30    70    1
    77    30    71    1
    78    31    72    1
    79    31    73    1
    80    32    74    1
    81    33    75    1
    82    34    76    1
    83    35    77    1
    84    40    78    1
    85    43    79    1
    86    44    80    1
