@<TRIPOS>MOLECULE
*****
 65 64 0 0 0
SMALL
GASTEIGER

@<TRIPOS>ATOM
      1 C           8.8835   -1.2964    2.5029 C.3     1  UNL1       -0.0416
      2 C           7.5421   -0.7088    2.1212 C.3     1  UNL1        0.0449
      3 O           6.9582   -1.3386    1.0562 O.3     1  UNL1       -0.3778
      4 C           7.6410   -1.3324   -0.1038 C.3     1  UNL1        0.0710
      5 C           7.9945   -0.0494   -0.7586 C.3     1  UNL1        0.0711
      6 O           7.1729    0.8341   -1.1795 O.3     1  UNL1       -0.3752
      7 C           6.2494    1.6465   -0.7894 C.3     1  UNL1        0.0711
      8 C           5.0168    1.0144   -0.1772 C.3     1  UNL1        0.0711
      9 O           4.4730    0.1817   -1.1094 O.3     1  UNL1       -0.3752
     10 C           3.3445   -0.5190   -0.7489 C.3     1  UNL1        0.0711
     11 C           2.2420    0.4140   -0.3906 C.3     1  UNL1        0.0711
     12 O           1.0521   -0.2096   -0.0155 O.3     1  UNL1       -0.3752
     13 C           0.5015   -1.0138   -0.9816 C.3     1  UNL1        0.0711
     14 C           0.1617   -0.3046   -2.2485 C.3     1  UNL1        0.0711
     15 O          -0.7407    0.7208   -2.1420 O.3     1  UNL1       -0.3752
     16 C          -1.9973    0.3041   -1.6380 C.3     1  UNL1        0.0711
     17 C          -2.8356    1.5607   -1.6015 C.3     1  UNL1        0.0711
     18 O          -4.0756    1.5465   -1.2015 O.3     1  UNL1       -0.3752
     19 C          -4.6716    1.2443   -0.0828 C.3     1  UNL1        0.0711
     20 C          -4.5551   -0.1782    0.3920 C.3     1  UNL1        0.0711
     21 O          -5.0603   -1.0781   -0.5188 O.3     1  UNL1       -0.3752
     22 C          -6.3864   -0.9280   -0.8341 C.3     1  UNL1        0.0711
     23 C          -7.3312   -1.0576    0.3337 C.3     1  UNL1        0.0711
     24 O          -8.6160   -0.8867   -0.1242 O.3     1  UNL1       -0.3752
     25 C          -9.5542   -0.9943    0.9025 C.3     1  UNL1        0.0708
     26 C          -9.3799    0.0089    1.9993 C.3     1  UNL1        0.0676
     27 O         -10.3925   -0.2190    2.9602 O.3     1  UNL1       -0.3927
     28 H           8.9719   -1.5176    3.5892 H       1  UNL1        0.0252
     29 H           9.7214   -0.6011    2.2648 H       1  UNL1        0.0252
     30 H           9.0550   -2.2890    2.0023 H       1  UNL1        0.0252
     31 H           7.6112    0.4056    1.9908 H       1  UNL1        0.0557
     32 H           6.8743   -0.8510    3.0034 H       1  UNL1        0.0557
     33 H           8.5371   -2.0314   -0.0366 H       1  UNL1        0.0583
     34 H           6.9956   -1.8902   -0.8589 H       1  UNL1        0.0583
     35 H           8.6491   -0.3880   -1.6668 H       1  UNL1        0.0583
     36 H           8.8316    0.4742   -0.1588 H       1  UNL1        0.0583
     37 H           5.8094    2.2397   -1.6788 H       1  UNL1        0.0583
     38 H           6.6148    2.4765   -0.0710 H       1  UNL1        0.0583
     39 H           5.2640    0.5174    0.7496 H       1  UNL1        0.0583
     40 H           4.2904    1.8498    0.1022 H       1  UNL1        0.0583
     41 H           3.5344   -1.2258    0.0889 H       1  UNL1        0.0583
     42 H           3.0894   -1.1610   -1.6332 H       1  UNL1        0.0583
     43 H           2.5755    0.9492    0.5494 H       1  UNL1        0.0583
     44 H           2.1379    1.1798   -1.1567 H       1  UNL1        0.0583
     45 H           1.2143   -1.8194   -1.2333 H       1  UNL1        0.0583
     46 H          -0.3889   -1.5424   -0.5578 H       1  UNL1        0.0583
     47 H          -0.2051   -1.0614   -2.9810 H       1  UNL1        0.0583
     48 H           1.0859    0.1112   -2.6796 H       1  UNL1        0.0583
     49 H          -1.7959   -0.0767   -0.6282 H       1  UNL1        0.0583
     50 H          -2.3933   -0.4848   -2.2717 H       1  UNL1        0.0583
     51 H          -2.2014    2.3469   -1.0422 H       1  UNL1        0.0583
     52 H          -2.8143    2.0397   -2.6532 H       1  UNL1        0.0583
     53 H          -4.3146    1.9417    0.7671 H       1  UNL1        0.0583
     54 H          -5.7861    1.5448   -0.0934 H       1  UNL1        0.0583
     55 H          -5.1192   -0.2851    1.3892 H       1  UNL1        0.0583
     56 H          -3.5377   -0.4426    0.6643 H       1  UNL1        0.0583
     57 H          -6.6227    0.0082   -1.3720 H       1  UNL1        0.0583
     58 H          -6.6490   -1.7483   -1.5332 H       1  UNL1        0.0583
     59 H          -7.2235   -2.0361    0.8061 H       1  UNL1        0.0583
     60 H          -7.1185   -0.2019    1.0106 H       1  UNL1        0.0583
     61 H          -9.3932   -2.0030    1.3694 H       1  UNL1        0.0583
     62 H         -10.5841   -0.9736    0.5338 H       1  UNL1        0.0583
     63 H          -9.5349    1.0542    1.6665 H       1  UNL1        0.0580
     64 H          -8.4309   -0.1375    2.5671 H       1  UNL1        0.0580
     65 H         -10.3870    0.5609    3.5696 H       1  UNL1        0.2095
@<TRIPOS>BOND
     1     1     2    1
     2     2     3    1
     3     3     4    1
     4     4     5    1
     5     5     6    1
     6     6     7    1
     7     7     8    1
     8     8     9    1
     9     9    10    1
    10    10    11    1
    11    11    12    1
    12    12    13    1
    13    13    14    1
    14    14    15    1
    15    15    16    1
    16    16    17    1
    17    17    18    1
    18    18    19    1
    19    19    20    1
    20    20    21    1
    21    21    22    1
    22    22    23    1
    23    23    24    1
    24    24    25    1
    25    25    26    1
    26    26    27    1
    27     1    28    1
    28     1    29    1
    29     1    30    1
    30     2    31    1
    31     2    32    1
    32     4    33    1
    33     4    34    1
    34     5    35    1
    35     5    36    1
    36     7    37    1
    37     7    38    1
    38     8    39    1
    39     8    40    1
    40    10    41    1
    41    10    42    1
    42    11    43    1
    43    11    44    1
    44    13    45    1
    45    13    46    1
    46    14    47    1
    47    14    48    1
    48    16    49    1
    49    16    50    1
    50    17    51    1
    51    17    52    1
    52    19    53    1
    53    19    54    1
    54    20    55    1
    55    20    56    1
    56    22    57    1
    57    22    58    1
    58    23    59    1
    59    23    60    1
    60    25    61    1
    61    25    62    1
    62    26    63    1
    63    26    64    1
    64    27    65    1
