
     RDKit          3D

 39 41  0  0  0  0  0  0  0  0999 V2000
   -2.4500    0.6633    2.7533 O   0  0  0  0  0  0  0  0  0  0  0  0
   -2.8226   -0.0707    1.4509 S   0  0  0  0  0  6  0  0  0  0  0  0
   -3.1645   -1.4794    1.9501 O   0  0  0  0  0  0  0  0  0  0  0  0
   -4.2930    0.5953    0.8190 C   0  0  0  0  0  0  0  0  0  0  0  0
   -5.2595   -0.2816    0.3281 C   0  0  0  0  0  0  0  0  0  0  0  0
   -6.4538    0.1895   -0.1796 C   0  0  0  0  0  0  0  0  0  0  0  0
   -6.6424    1.5412   -0.1803 C   0  0  0  0  0  0  0  0  0  0  0  0
   -8.3247    2.1706   -0.8803 Br  0  0  0  0  0  0  0  0  0  0  0  0
   -5.7178    2.4360    0.2910 C   0  0  0  0  0  0  0  0  0  0  0  0
   -4.5233    1.9367    0.7977 C   0  0  0  0  0  0  0  0  0  0  0  0
   -1.5595   -0.0653    0.3747 N   0  0  0  0  0  0  0  0  0  0  0  0
   -0.9955    1.0790   -0.1599 C   0  0  0  0  0  0  0  0  0  0  0  0
    0.4938    0.9282   -0.4180 C   0  0  0  0  0  0  0  0  0  0  0  0
    1.1798   -0.1287   -0.1511 C   0  0  0  0  0  0  0  0  0  0  0  0
    2.5803   -0.2971   -0.3792 C   0  0  0  0  0  0  0  0  0  0  0  0
    3.7634   -0.4481   -0.5577 C   0  0  0  0  0  0  0  0  0  0  0  0
    5.1814   -0.6329   -0.7480 C   0  0  0  0  0  0  0  0  0  0  0  0
    5.8054   -0.7597   -1.9564 C   0  0  0  0  0  0  0  0  0  0  0  0
    7.1602   -0.9171   -2.1006 C   0  0  0  0  0  0  0  0  0  0  0  0
    7.9404   -0.9520   -0.9393 C   0  0  0  0  0  0  0  0  0  0  0  0
    7.3001   -0.8250    0.2640 C   0  0  0  0  0  0  0  0  0  0  0  0
    5.9731   -0.6712    0.3521 N   0  0  0  0  0  0  0  0  0  0  0  0
    0.4858   -1.3499    0.4600 C   0  0  0  0  0  0  0  0  0  0  0  0
   -0.9585   -1.3068    0.0163 C   0  0  0  0  0  0  0  0  0  0  0  0
   -5.0867   -1.3434    0.3338 H   0  0  0  0  0  0  0  0  0  0  0  0
   -7.2040   -0.4858   -0.5582 H   0  0  0  0  0  0  0  0  0  0  0  0
   -5.9353    3.4803    0.2528 H   0  0  0  0  0  0  0  0  0  0  0  0
   -3.7860    2.6579    1.1625 H   0  0  0  0  0  0  0  0  0  0  0  0
   -1.4532    1.3313   -1.1357 H   0  0  0  0  0  0  0  0  0  0  0  0
   -1.1573    1.9844    0.4892 H   0  0  0  0  0  0  0  0  0  0  0  0
    0.9738    1.7850   -0.8580 H   0  0  0  0  0  0  0  0  0  0  0  0
    5.1934   -0.7343   -2.8648 H   0  0  0  0  0  0  0  0  0  0  0  0
    7.5828   -1.0140   -3.0801 H   0  0  0  0  0  0  0  0  0  0  0  0
    9.0136   -1.0812   -1.0319 H   0  0  0  0  0  0  0  0  0  0  0  0
    7.9347   -0.8526    1.1653 H   0  0  0  0  0  0  0  0  0  0  0  0
    0.6591   -1.3843    1.5309 H   0  0  0  0  0  0  0  0  0  0  0  0
    0.9640   -2.2218   -0.0204 H   0  0  0  0  0  0  0  0  0  0  0  0
   -0.9032   -1.3059   -1.1110 H   0  0  0  0  0  0  0  0  0  0  0  0
   -1.4945   -2.1698    0.3504 H   0  0  0  0  0  0  0  0  0  0  0  0
  1  2  2  0
  2  3  2  0
  2  4  1  0
  4  5  2  0
  5  6  1  0
  6  7  2  0
  7  8  1  0
  7  9  1  0
  9 10  2  0
  2 11  1  0
 11 12  1  0
 12 13  1  0
 13 14  2  0
 14 15  1  0
 15 16  3  0
 16 17  1  0
 17 18  2  0
 18 19  1  0
 19 20  2  0
 20 21  1  0
 21 22  2  0
 14 23  1  0
 23 24  1  0
 10  4  1  0
 24 11  1  0
 22 17  1  0
  5 25  1  0
  6 26  1  0
  9 27  1  0
 10 28  1  0
 12 29  1  0
 12 30  1  0
 13 31  1  0
 18 32  1  0
 19 33  1  0
 20 34  1  0
 21 35  1  0
 23 36  1  0
 23 37  1  0
 24 38  1  0
 24 39  1  0
M  END
$$$$
