@<TRIPOS>MOLECULE
*****
 39 41 0 0 0
SMALL
GASTEIGER

@<TRIPOS>ATOM
      1 O          -2.4500    0.6633    2.7533 O.2     1  UNL1       -0.1528
      2 S          -2.8226   -0.0707    1.4509 S.O2    1  UNL1        0.0611
      3 O          -3.1645   -1.4794    1.9501 O.2     1  UNL1       -0.1528
      4 C          -4.2930    0.5953    0.8190 C.ar    1  UNL1        0.1056
      5 C          -5.2595   -0.2816    0.3281 C.ar    1  UNL1       -0.0343
      6 C          -6.4538    0.1895   -0.1796 C.ar    1  UNL1       -0.0459
      7 C          -6.6424    1.5412   -0.1803 C.ar    1  UNL1        0.0180
      8 BR         -8.3247    2.1706   -0.8803 Br      1  UNL1       -0.0503
      9 C          -5.7178    2.4360    0.2910 C.ar    1  UNL1       -0.0459
     10 C          -4.5233    1.9367    0.7977 C.ar    1  UNL1       -0.0343
     11 N          -1.5595   -0.0653    0.3747 N.3     1  UNL1       -0.1725
     12 C          -0.9955    1.0790   -0.1599 C.3     1  UNL1        0.0397
     13 C           0.4938    0.9282   -0.4180 C.2     1  UNL1       -0.0570
     14 C           1.1798   -0.1287   -0.1511 C.2     1  UNL1        0.0015
     15 C           2.5803   -0.2971   -0.3792 C.1     1  UNL1       -0.0641
     16 C           3.7634   -0.4481   -0.5577 C.1     1  UNL1       -0.0415
     17 C           5.1814   -0.6329   -0.7480 C.ar    1  UNL1        0.1137
     18 C           5.8054   -0.7597   -1.9564 C.ar    1  UNL1       -0.0278
     19 C           7.1602   -0.9171   -2.1006 C.ar    1  UNL1       -0.0577
     20 C           7.9404   -0.9520   -0.9393 C.ar    1  UNL1       -0.0435
     21 C           7.3001   -0.8250    0.2640 C.ar    1  UNL1        0.0290
     22 N           5.9731   -0.6712    0.3521 N.ar    1  UNL1       -0.2467
     23 C           0.4858   -1.3499    0.4600 C.3     1  UNL1       -0.0056
     24 C          -0.9585   -1.3068    0.0163 C.3     1  UNL1        0.0254
     25 H          -5.0867   -1.3434    0.3338 H       1  UNL1        0.0637
     26 H          -7.2040   -0.4858   -0.5582 H       1  UNL1        0.0629
     27 H          -5.9353    3.4803    0.2528 H       1  UNL1        0.0629
     28 H          -3.7860    2.6579    1.1625 H       1  UNL1        0.0637
     29 H          -1.4532    1.3313   -1.1357 H       1  UNL1        0.0487
     30 H          -1.1573    1.9844    0.4892 H       1  UNL1        0.0487
     31 H           0.9738    1.7850   -0.8580 H       1  UNL1        0.0594
     32 H           5.1934   -0.7343   -2.8648 H       1  UNL1        0.0645
     33 H           7.5828   -1.0140   -3.0801 H       1  UNL1        0.0619
     34 H           9.0136   -1.0812   -1.0319 H       1  UNL1        0.0633
     35 H           7.9347   -0.8526    1.1653 H       1  UNL1        0.0830
     36 H           0.6591   -1.3843    1.5309 H       1  UNL1        0.0332
     37 H           0.9640   -2.2218   -0.0204 H       1  UNL1        0.0332
     38 H          -0.9032   -1.3059   -1.1110 H       1  UNL1        0.0447
     39 H          -1.4945   -2.1698    0.3504 H       1  UNL1        0.0447
@<TRIPOS>BOND
     1     1     2    2
     2     2     3    2
     3     2     4    1
     4     4     5   ar
     5     5     6   ar
     6     6     7   ar
     7     7     8    1
     8     7     9   ar
     9     9    10   ar
    10     2    11    1
    11    11    12    1
    12    12    13    1
    13    13    14    2
    14    14    15    1
    15    15    16    3
    16    16    17    1
    17    17    18   ar
    18    18    19   ar
    19    19    20   ar
    20    20    21   ar
    21    21    22   ar
    22    14    23    1
    23    23    24    1
    24    10     4   ar
    25    24    11    1
    26    22    17   ar
    27     5    25    1
    28     6    26    1
    29     9    27    1
    30    10    28    1
    31    12    29    1
    32    12    30    1
    33    13    31    1
    34    18    32    1
    35    19    33    1
    36    20    34    1
    37    21    35    1
    38    23    36    1
    39    23    37    1
    40    24    38    1
    41    24    39    1
