@<TRIPOS>MOLECULE
*****
 28 28 0 0 0
SMALL
GASTEIGER

@<TRIPOS>ATOM
      1 C          -1.7895   -0.0664    1.5462 C.3     1  UNL1       -0.0362
      2 C          -1.8076   -0.0793    0.0378 C.3     1  UNL1        0.1157
      3 N          -1.9390   -1.4278   -0.4537 N.3     1  UNL1       -0.3158
      4 C          -0.7116    0.7012   -0.5905 C.3     1  UNL1        0.0007
      5 C           0.6545    0.3164   -0.3011 C.ar    1  UNL1       -0.0414
      6 C           1.1961   -0.6142   -1.1649 C.ar    1  UNL1       -0.0548
      7 C           2.4918   -1.0901   -1.0298 C.ar    1  UNL1       -0.0163
      8 C           3.2879   -0.6243    0.0068 C.ar    1  UNL1        0.1582
      9 O           4.5894   -1.0854    0.1637 O.3     1  UNL1       -0.5033
     10 C           2.7661    0.3111    0.8878 C.ar    1  UNL1        0.1585
     11 O           3.5565    0.7821    1.9276 O.3     1  UNL1       -0.5033
     12 C           1.4777    0.7698    0.7352 C.ar    1  UNL1       -0.0133
     13 C          -3.0840    0.6085   -0.3817 C.2     1  UNL1        0.3249
     14 O          -3.4864    1.9219   -0.1677 O.3     1  UNL1       -0.4793
     15 O          -4.0056    0.0358   -1.0224 O.2     1  UNL1       -0.2489
     16 H          -1.1798    0.7515    1.9767 H       1  UNL1        0.0253
     17 H          -1.4564   -1.0738    1.9277 H       1  UNL1        0.0253
     18 H          -2.8292    0.0359    1.9685 H       1  UNL1        0.0253
     19 H          -2.6104   -1.5050   -1.2754 H       1  UNL1        0.1192
     20 H          -2.3751   -2.0420    0.2824 H       1  UNL1        0.1192
     21 H          -0.8398    1.7594   -0.2161 H       1  UNL1        0.0336
     22 H          -0.9109    0.7688   -1.6727 H       1  UNL1        0.0336
     23 H           0.6976   -1.0686   -2.0185 H       1  UNL1        0.0621
     24 H           2.9557   -1.8175   -1.6820 H       1  UNL1        0.0655
     25 H           4.8962   -1.6305    0.9705 H       1  UNL1        0.2923
     26 H           3.8300    1.7586    1.8817 H       1  UNL1        0.2923
     27 H           1.0255    1.4898    1.3846 H       1  UNL1        0.0658
     28 H          -4.3996    2.1142    0.2571 H       1  UNL1        0.2951
@<TRIPOS>BOND
     1     1     2    1
     2     2     3    1
     3     2     4    1
     4     4     5    1
     5     5     6   ar
     6     6     7   ar
     7     7     8   ar
     8     8     9    1
     9     8    10   ar
    10    10    11    1
    11    10    12   ar
    12     2    13    1
    13    13    14    1
    14    13    15    2
    15    12     5   ar
    16     1    16    1
    17     1    17    1
    18     1    18    1
    19     3    19    1
    20     3    20    1
    21     4    21    1
    22     4    22    1
    23     6    23    1
    24     7    24    1
    25     9    25    1
    26    11    26    1
    27    12    27    1
    28    14    28    1
