@<TRIPOS>MOLECULE
*****
 76 79 0 0 0
SMALL
GASTEIGER

@<TRIPOS>ATOM
      1 O           4.5475    1.4377   -3.2938 O.3     1  UNL1       -0.3935
      2 C           3.8219    0.9640   -2.1845 C.3     1  UNL1        0.0600
      3 C           4.7289    0.7173   -0.9863 C.3     1  UNL1        0.0381
      4 N           3.9862    0.2268    0.1687 N.pl3   1  UNL1       -0.2952
      5 C           4.8933    0.0490    1.2720 C.3     1  UNL1        0.0381
      6 C           4.2014   -0.4546    2.4955 C.3     1  UNL1        0.0600
      7 O           5.1394   -0.5984    3.5071 O.3     1  UNL1       -0.3935
      8 C           2.5925    0.0157    0.0048 C.ar    1  UNL1        0.2204
      9 N           1.7760    1.1034    0.0654 N.ar    1  UNL1       -0.2092
     10 C           0.4522    0.8413   -0.0937 C.ar    1  UNL1        0.1360
     11 C          -0.0273   -0.4385   -0.3009 C.ar    1  UNL1        0.1360
     12 N          -1.3272   -0.6755   -0.4795 N.ar    1  UNL1       -0.2092
     13 C          -2.2023    0.3376   -0.4605 C.ar    1  UNL1        0.2204
     14 N          -1.7796    1.6086   -0.2600 N.ar    1  UNL1       -0.1972
     15 C          -0.4753    1.8842   -0.0767 C.ar    1  UNL1        0.1528
     16 N          -0.0452    3.2182    0.1558 N.pl3   1  UNL1       -0.3134
     17 C           0.5451    3.5209    1.4696 C.3     1  UNL1        0.0136
     18 C          -0.4595    4.2757    2.3184 C.3     1  UNL1       -0.0371
     19 C          -1.2092    5.2302    1.4024 C.3     1  UNL1       -0.0502
     20 C          -0.2551    5.6507    0.3141 C.3     1  UNL1       -0.0371
     21 C          -0.0222    4.4544   -0.6100 C.3     1  UNL1        0.0136
     22 N          -3.5594   -0.1165   -0.6708 N.pl3   1  UNL1       -0.2952
     23 C          -4.5755   -0.3312    0.3223 C.3     1  UNL1        0.0381
     24 C          -4.9250   -1.7844    0.5491 C.3     1  UNL1        0.0600
     25 O          -5.9240   -1.8998    1.5277 O.3     1  UNL1       -0.3935
     26 C          -4.0077   -0.4334   -1.9937 C.3     1  UNL1        0.0381
     27 C          -5.0535    0.4601   -2.5674 C.3     1  UNL1        0.0600
     28 O          -5.3581   -0.0189   -3.8643 O.3     1  UNL1       -0.3935
     29 C           0.8509   -1.5311   -0.3541 C.ar    1  UNL1        0.1528
     30 N           2.1543   -1.2478   -0.1954 N.ar    1  UNL1       -0.1972
     31 N           0.4740   -2.8934   -0.5290 N.pl3   1  UNL1       -0.3134
     32 C           1.4469   -3.9290   -0.8077 C.3     1  UNL1        0.0136
     33 C           1.6632   -4.7308    0.4510 C.3     1  UNL1       -0.0371
     34 C           0.3109   -4.9495    1.1320 C.3     1  UNL1       -0.0502
     35 C          -0.7658   -4.8463    0.0755 C.3     1  UNL1       -0.0371
     36 C          -0.8832   -3.4233   -0.4414 C.3     1  UNL1        0.0136
     37 H           5.2686    0.8229   -3.5392 H       1  UNL1        0.2095
     38 H           3.0147    1.6875   -1.9431 H       1  UNL1        0.0573
     39 H           3.3073    0.0349   -2.5220 H       1  UNL1        0.0573
     40 H           5.4589   -0.0651   -1.2820 H       1  UNL1        0.0487
     41 H           5.1806    1.6723   -0.6921 H       1  UNL1        0.0487
     42 H           5.3912    1.0086    1.4541 H       1  UNL1        0.0487
     43 H           5.6022   -0.7486    0.9558 H       1  UNL1        0.0487
     44 H           3.4007    0.2720    2.7846 H       1  UNL1        0.0573
     45 H           3.7132   -1.4155    2.2297 H       1  UNL1        0.0573
     46 H           5.4434   -1.5358    3.6019 H       1  UNL1        0.2095
     47 H           1.4914    4.0519    1.3600 H       1  UNL1        0.0464
     48 H           0.7610    2.5768    2.0099 H       1  UNL1        0.0464
     49 H          -1.1951    3.5934    2.8239 H       1  UNL1        0.0280
     50 H           0.0886    4.8346    3.0879 H       1  UNL1        0.0280
     51 H          -1.4689    6.1173    2.0214 H       1  UNL1        0.0266
     52 H          -2.1288    4.7346    1.0310 H       1  UNL1        0.0266
     53 H          -0.6427    6.5141   -0.2242 H       1  UNL1        0.0280
     54 H           0.7192    5.9137    0.8299 H       1  UNL1        0.0280
     55 H           1.0380    4.5198   -0.9998 H       1  UNL1        0.0464
     56 H          -0.6944    4.4789   -1.4617 H       1  UNL1        0.0464
     57 H          -5.5202    0.2489    0.1189 H       1  UNL1        0.0487
     58 H          -4.1979    0.0515    1.2902 H       1  UNL1        0.0487
     59 H          -5.3357   -2.2254   -0.3759 H       1  UNL1        0.0573
     60 H          -4.0572   -2.3489    0.9667 H       1  UNL1        0.0573
     61 H          -5.5933   -1.6415    2.4260 H       1  UNL1        0.2095
     62 H          -4.3272   -1.4998   -1.9696 H       1  UNL1        0.0487
     63 H          -3.1340   -0.4180   -2.6912 H       1  UNL1        0.0487
     64 H          -6.0348    0.3465   -2.0213 H       1  UNL1        0.0573
     65 H          -4.6890    1.4996   -2.5722 H       1  UNL1        0.0573
     66 H          -4.7116    0.2890   -4.5418 H       1  UNL1        0.2095
     67 H           2.3911   -3.4874   -1.2011 H       1  UNL1        0.0464
     68 H           1.0446   -4.5783   -1.6357 H       1  UNL1        0.0464
     69 H           2.2717   -4.1208    1.1411 H       1  UNL1        0.0280
     70 H           2.1482   -5.7113    0.2372 H       1  UNL1        0.0280
     71 H           0.1432   -4.2283    1.9449 H       1  UNL1        0.0266
     72 H           0.3036   -5.9753    1.5571 H       1  UNL1        0.0266
     73 H          -1.7436   -5.1147    0.5205 H       1  UNL1        0.0280
     74 H          -0.5564   -5.5556   -0.7345 H       1  UNL1        0.0280
     75 H          -1.4134   -3.4345   -1.3891 H       1  UNL1        0.0464
     76 H          -1.4670   -2.8573    0.3421 H       1  UNL1        0.0464
@<TRIPOS>BOND
     1     1     2    1
     2     2     3    1
     3     3     4    1
     4     4     5    1
     5     5     6    1
     6     6     7    1
     7     4     8    1
     8     8     9   ar
     9     9    10   ar
    10    10    11   ar
    11    11    12   ar
    12    12    13   ar
    13    13    14   ar
    14    14    15   ar
    15    15    16    1
    16    16    17    1
    17    17    18    1
    18    18    19    1
    19    19    20    1
    20    20    21    1
    21    13    22    1
    22    22    23    1
    23    23    24    1
    24    24    25    1
    25    22    26    1
    26    26    27    1
    27    27    28    1
    28    11    29   ar
    29    29    30   ar
    30    29    31    1
    31    31    32    1
    32    32    33    1
    33    33    34    1
    34    34    35    1
    35    35    36    1
    36    30     8   ar
    37    36    31    1
    38    15    10   ar
    39    21    16    1
    40     1    37    1
    41     2    38    1
    42     2    39    1
    43     3    40    1
    44     3    41    1
    45     5    42    1
    46     5    43    1
    47     6    44    1
    48     6    45    1
    49     7    46    1
    50    17    47    1
    51    17    48    1
    52    18    49    1
    53    18    50    1
    54    19    51    1
    55    19    52    1
    56    20    53    1
    57    20    54    1
    58    21    55    1
    59    21    56    1
    60    23    57    1
    61    23    58    1
    62    24    59    1
    63    24    60    1
    64    25    61    1
    65    26    62    1
    66    26    63    1
    67    27    64    1
    68    27    65    1
    69    28    66    1
    70    32    67    1
    71    32    68    1
    72    33    69    1
    73    33    70    1
    74    34    71    1
    75    34    72    1
    76    35    73    1
    77    35    74    1
    78    36    75    1
    79    36    76    1
