
     RDKit          3D

 58 63  0  0  0  0  0  0  0  0999 V2000
    6.1711   -0.7774   -1.9112 C   0  0  0  0  0  0  0  0  0  0  0  0
    5.1341   -0.5711   -0.9977 O   0  0  0  0  0  0  0  0  0  0  0  0
    4.8326   -1.4446    0.0403 C   0  0  0  0  0  0  0  0  0  0  0  0
    5.5446   -2.5664    0.2279 N   0  0  0  0  0  0  0  0  0  0  0  0
    5.2948   -3.4427    1.2139 C   0  0  0  0  0  0  0  0  0  0  0  0
    4.2526   -3.2332    2.1251 C   0  0  0  0  0  0  0  0  0  0  0  0
    3.5312   -2.0782    1.9202 C   0  0  0  0  0  0  0  0  0  0  0  0
    3.7896   -1.1814    0.9084 C   0  0  0  0  0  0  0  0  0  0  0  0
    2.9617    0.0303    0.7516 C   0  0  0  0  0  0  0  0  0  0  0  0
    3.3598    1.3130    0.6593 N   0  0  0  0  0  0  0  0  0  0  0  0
    2.3366    2.1348    0.5145 N   0  0  0  0  0  0  0  0  0  0  0  0
    2.3474    3.5864    0.3865 C   0  0  0  0  0  0  0  0  0  0  0  0
    1.2163    1.3778    0.5088 C   0  0  0  0  0  0  0  0  0  0  0  0
    1.5808    0.0625    0.6575 C   0  0  0  0  0  0  0  0  0  0  0  0
    0.3582   -0.7328    0.6784 C   0  0  0  0  0  0  0  0  0  0  0  0
    0.4000   -1.9800    0.8014 O   0  0  0  0  0  0  0  0  0  0  0  0
   -0.7498    0.1472    0.5410 N   0  0  0  0  0  0  0  0  0  0  0  0
   -2.1208   -0.2173    0.5863 C   0  0  0  0  0  0  0  0  0  0  0  0
   -3.1357    0.6868    0.3555 C   0  0  0  0  0  0  0  0  0  0  0  0
   -4.4855    0.3801    0.3985 C   0  0  0  0  0  0  0  0  0  0  0  0
   -5.5260    1.4169    0.1258 C   0  0  0  0  0  0  0  0  0  0  0  0
   -4.8005   -0.9370    0.6981 C   0  0  0  0  0  0  0  0  0  0  0  0
   -6.0199   -1.5220    0.8115 N   0  0  0  0  0  0  0  0  0  0  0  0
   -5.7873   -2.7986    1.1150 N   0  0  0  0  0  0  0  0  0  0  0  0
   -4.4681   -3.0433    1.1977 C   0  0  0  0  0  0  0  0  0  0  0  0
   -3.7524   -4.3016    1.5100 C   0  0  0  0  0  0  0  0  0  0  0  0
   -3.8558   -1.8552    0.9313 N   0  0  0  0  0  0  0  0  0  0  0  0
   -2.5355   -1.5061    0.8772 C   0  0  0  0  0  0  0  0  0  0  0  0
   -0.2643    1.4967    0.3661 C   0  0  0  0  0  0  0  0  0  0  0  0
   -0.6108    2.0707   -0.9385 C   0  0  0  0  0  0  0  0  0  0  0  0
   -0.9722    3.4081   -1.0698 C   0  0  0  0  0  0  0  0  0  0  0  0
   -1.2992    3.9022   -2.3082 C   0  0  0  0  0  0  0  0  0  0  0  0
   -1.2771    3.1012   -3.4289 C   0  0  0  0  0  0  0  0  0  0  0  0
   -1.6985    3.7279   -5.0249 Cl  0  0  0  0  0  0  0  0  0  0  0  0
   -0.9183    1.7733   -3.3018 C   0  0  0  0  0  0  0  0  0  0  0  0
   -0.5927    1.2886   -2.0564 C   0  0  0  0  0  0  0  0  0  0  0  0
    6.6831   -1.7491   -1.8235 H   0  0  0  0  0  0  0  0  0  0  0  0
    5.7046   -0.7107   -2.9345 H   0  0  0  0  0  0  0  0  0  0  0  0
    6.9059    0.0520   -1.8756 H   0  0  0  0  0  0  0  0  0  0  0  0
    5.8888   -4.3515    1.3457 H   0  0  0  0  0  0  0  0  0  0  0  0
    4.0744   -3.9561    2.9059 H   0  0  0  0  0  0  0  0  0  0  0  0
    2.7198   -1.8962    2.6114 H   0  0  0  0  0  0  0  0  0  0  0  0
    2.2536    3.9402   -0.6375 H   0  0  0  0  0  0  0  0  0  0  0  0
    1.5139    3.9960    1.0243 H   0  0  0  0  0  0  0  0  0  0  0  0
    3.2735    4.0025    0.8607 H   0  0  0  0  0  0  0  0  0  0  0  0
   -2.8610    1.7074    0.1309 H   0  0  0  0  0  0  0  0  0  0  0  0
   -6.5268    0.9566    0.3587 H   0  0  0  0  0  0  0  0  0  0  0  0
   -5.4164    2.3100    0.7472 H   0  0  0  0  0  0  0  0  0  0  0  0
   -5.5644    1.6582   -0.9671 H   0  0  0  0  0  0  0  0  0  0  0  0
   -2.8943   -4.0182    2.1721 H   0  0  0  0  0  0  0  0  0  0  0  0
   -3.3069   -4.7787    0.6219 H   0  0  0  0  0  0  0  0  0  0  0  0
   -4.4442   -4.9992    2.0480 H   0  0  0  0  0  0  0  0  0  0  0  0
   -1.8136   -2.2775    1.0727 H   0  0  0  0  0  0  0  0  0  0  0  0
   -0.6644    2.0998    1.2083 H   0  0  0  0  0  0  0  0  0  0  0  0
   -0.9865    4.0231   -0.1926 H   0  0  0  0  0  0  0  0  0  0  0  0
   -1.5845    4.9268   -2.4636 H   0  0  0  0  0  0  0  0  0  0  0  0
   -0.8840    1.0990   -4.1308 H   0  0  0  0  0  0  0  0  0  0  0  0
   -0.3116    0.2496   -1.9533 H   0  0  0  0  0  0  0  0  0  0  0  0
  1  2  1  0
  2  3  1  0
  3  4  2  0
  4  5  1  0
  5  6  2  0
  6  7  1  0
  7  8  2  0
  8  9  1  0
  9 10  2  0
 10 11  1  0
 11 12  1  0
 11 13  1  0
 13 14  2  0
 14 15  1  0
 15 16  2  0
 15 17  1  0
 17 18  1  0
 18 19  1  0
 19 20  2  0
 20 21  1  0
 20 22  1  0
 22 23  2  0
 23 24  1  0
 24 25  2  0
 25 26  1  0
 25 27  1  0
 27 28  1  0
 17 29  1  0
 29 30  1  0
 30 31  2  0
 31 32  1  0
 32 33  2  0
 33 34  1  0
 33 35  1  0
 35 36  2  0
  8  3  1  0
 14  9  1  0
 28 18  2  0
 36 30  1  0
 29 13  1  0
 27 22  1  0
  1 37  1  0
  1 38  1  0
  1 39  1  0
  5 40  1  0
  6 41  1  0
  7 42  1  0
 12 43  1  0
 12 44  1  0
 12 45  1  0
 19 46  1  0
 21 47  1  0
 21 48  1  0
 21 49  1  0
 26 50  1  0
 26 51  1  0
 26 52  1  0
 28 53  1  0
 29 54  1  0
 31 55  1  0
 32 56  1  0
 35 57  1  0
 36 58  1  0
M  END
$$$$
