@<TRIPOS>MOLECULE
*****
 58 63 0 0 0
SMALL
GASTEIGER

@<TRIPOS>ATOM
      1 C           6.1711   -0.7774   -1.9112 C.3     1  UNL1        0.0804
      2 O           5.1341   -0.5711   -0.9977 O.3     1  UNL1       -0.4792
      3 C           4.8326   -1.4446    0.0403 C.ar    1  UNL1        0.2239
      4 N           5.5446   -2.5664    0.2279 N.ar    1  UNL1       -0.2208
      5 C           5.2948   -3.4427    1.2139 C.ar    1  UNL1        0.0314
      6 C           4.2526   -3.2332    2.1251 C.ar    1  UNL1       -0.0427
      7 C           3.5312   -2.0782    1.9202 C.ar    1  UNL1       -0.0459
      8 C           3.7896   -1.1814    0.9084 C.ar    1  UNL1        0.0643
      9 C           2.9617    0.0303    0.7516 C.ar    1  UNL1        0.1103
     10 N           3.3598    1.3130    0.6593 N.ar    1  UNL1       -0.1702
     11 N           2.3366    2.1348    0.5145 N.ar    1  UNL1       -0.2679
     12 C           2.3474    3.5864    0.3865 C.3     1  UNL1        0.0306
     13 C           1.2163    1.3778    0.5088 C.ar    1  UNL1        0.0768
     14 C           1.5808    0.0625    0.6575 C.ar    1  UNL1        0.0880
     15 C           0.3582   -0.7328    0.6784 C.2     1  UNL1        0.2556
     16 O           0.4000   -1.9800    0.8014 O.2     1  UNL1       -0.2695
     17 N          -0.7498    0.1472    0.5410 N.am    1  UNL1       -0.2529
     18 C          -2.1208   -0.2173    0.5863 C.ar    1  UNL1        0.0545
     19 C          -3.1357    0.6868    0.3555 C.ar    1  UNL1       -0.0324
     20 C          -4.4855    0.3801    0.3985 C.ar    1  UNL1       -0.0041
     21 C          -5.5260    1.4169    0.1258 C.3     1  UNL1       -0.0361
     22 C          -4.8005   -0.9370    0.6981 C.ar    1  UNL1        0.1641
     23 N          -6.0199   -1.5220    0.8115 N.ar    1  UNL1       -0.1292
     24 N          -5.7873   -2.7986    1.1150 N.ar    1  UNL1       -0.1340
     25 C          -4.4681   -3.0433    1.1977 C.ar    1  UNL1        0.1347
     26 C          -3.7524   -4.3016    1.5100 C.3     1  UNL1       -0.0041
     27 N          -3.8558   -1.8552    0.9313 N.ar    1  UNL1       -0.2846
     28 C          -2.5355   -1.5061    0.8772 C.ar    1  UNL1        0.0344
     29 C          -0.2643    1.4967    0.3661 C.3     1  UNL1        0.0988
     30 C          -0.6108    2.0707   -0.9385 C.ar    1  UNL1       -0.0207
     31 C          -0.9722    3.4081   -1.0698 C.ar    1  UNL1       -0.0550
     32 C          -1.2992    3.9022   -2.3082 C.ar    1  UNL1       -0.0431
     33 C          -1.2771    3.1012   -3.4289 C.ar    1  UNL1        0.0410
     34 CL         -1.6985    3.7279   -5.0249 Cl      1  UNL1       -0.0835
     35 C          -0.9183    1.7733   -3.3018 C.ar    1  UNL1       -0.0431
     36 C          -0.5927    1.2886   -2.0564 C.ar    1  UNL1       -0.0550
     37 H           6.6831   -1.7491   -1.8235 H       1  UNL1        0.0660
     38 H           5.7046   -0.7107   -2.9345 H       1  UNL1        0.0660
     39 H           6.9059    0.0520   -1.8756 H       1  UNL1        0.0660
     40 H           5.8888   -4.3515    1.3457 H       1  UNL1        0.0831
     41 H           4.0744   -3.9561    2.9059 H       1  UNL1        0.0633
     42 H           2.7198   -1.8962    2.6114 H       1  UNL1        0.0626
     43 H           2.2536    3.9402   -0.6375 H       1  UNL1        0.0473
     44 H           1.5139    3.9960    1.0243 H       1  UNL1        0.0473
     45 H           3.2735    4.0025    0.8607 H       1  UNL1        0.0473
     46 H          -2.8610    1.7074    0.1309 H       1  UNL1        0.0640
     47 H          -6.5268    0.9566    0.3587 H       1  UNL1        0.0279
     48 H          -5.4164    2.3100    0.7472 H       1  UNL1        0.0279
     49 H          -5.5644    1.6582   -0.9671 H       1  UNL1        0.0279
     50 H          -2.8943   -4.0182    2.1721 H       1  UNL1        0.0308
     51 H          -3.3069   -4.7787    0.6219 H       1  UNL1        0.0308
     52 H          -4.4442   -4.9992    2.0480 H       1  UNL1        0.0308
     53 H          -1.8136   -2.2775    1.0727 H       1  UNL1        0.0833
     54 H          -0.6644    2.0998    1.2083 H       1  UNL1        0.0620
     55 H          -0.9865    4.0231   -0.1926 H       1  UNL1        0.0621
     56 H          -1.5845    4.9268   -2.4636 H       1  UNL1        0.0632
     57 H          -0.8840    1.0990   -4.1308 H       1  UNL1        0.0632
     58 H          -0.3116    0.2496   -1.9533 H       1  UNL1        0.0621
@<TRIPOS>BOND
     1     1     2    1
     2     2     3    1
     3     3     4   ar
     4     4     5   ar
     5     5     6   ar
     6     6     7   ar
     7     7     8   ar
     8     8     9    1
     9     9    10   ar
    10    10    11   ar
    11    11    12    1
    12    11    13   ar
    13    13    14   ar
    14    14    15    1
    15    15    16    2
    16    15    17   am
    17    17    18    1
    18    18    19   ar
    19    19    20   ar
    20    20    21    1
    21    20    22   ar
    22    22    23   ar
    23    23    24   ar
    24    24    25   ar
    25    25    26    1
    26    25    27   ar
    27    27    28   ar
    28    17    29    1
    29    29    30    1
    30    30    31   ar
    31    31    32   ar
    32    32    33   ar
    33    33    34    1
    34    33    35   ar
    35    35    36   ar
    36     8     3   ar
    37    14     9   ar
    38    28    18   ar
    39    36    30   ar
    40    29    13    1
    41    27    22   ar
    42     1    37    1
    43     1    38    1
    44     1    39    1
    45     5    40    1
    46     6    41    1
    47     7    42    1
    48    12    43    1
    49    12    44    1
    50    12    45    1
    51    19    46    1
    52    21    47    1
    53    21    48    1
    54    21    49    1
    55    26    50    1
    56    26    51    1
    57    26    52    1
    58    28    53    1
    59    29    54    1
    60    31    55    1
    61    32    56    1
    62    35    57    1
    63    36    58    1
