@<TRIPOS>MOLECULE
*****
 43 46 0 0 0
SMALL
GASTEIGER

@<TRIPOS>ATOM
      1 C           6.2707    3.0001    1.5379 C.3     1  UNL1        0.0788
      2 O           6.1274    1.6590    1.1094 O.3     1  UNL1       -0.4951
      3 C           4.9061    1.1083    0.8156 C.ar    1  UNL1        0.1202
      4 C           4.8375   -0.2065    0.4033 C.ar    1  UNL1       -0.0179
      5 C           3.6291   -0.7937    0.0998 C.ar    1  UNL1       -0.0327
      6 C           2.4582   -0.0889    0.1983 C.ar    1  UNL1        0.0695
      7 N           1.2138   -0.6961   -0.1145 N.ar    1  UNL1       -0.1945
      8 N           0.1172   -0.4596    0.6163 N.ar    1  UNL1       -0.1474
      9 C          -1.0712   -1.0222    0.3396 C.ar    1  UNL1        0.1529
     10 N          -2.2414   -0.7680    1.1133 N.pl3   1  UNL1       -0.2829
     11 C          -3.1288    0.3046    0.7311 C.ar    1  UNL1        0.1196
     12 C          -4.2917    0.7109    1.3290 C.ar    1  UNL1        0.0006
     13 C          -4.8019    1.7883    0.5987 C.ar    1  UNL1        0.0616
     14 C          -6.0603    2.5430    0.8965 C.3     1  UNL1       -0.0206
     15 N          -3.9374    1.9890   -0.4006 N.ar    1  UNL1       -0.1775
     16 N          -2.9558    1.1244   -0.3292 N.ar    1  UNL1       -0.2637
     17 C          -1.2157   -1.8798   -0.7238 C.ar    1  UNL1        0.0291
     18 C          -2.4257   -2.4877   -1.0523 C.ar    1  UNL1       -0.0505
     19 C          -2.5253   -3.3441   -2.1324 C.ar    1  UNL1       -0.0611
     20 C          -1.4239   -3.6174   -2.9131 C.ar    1  UNL1       -0.0610
     21 C          -0.2194   -2.9996   -2.5696 C.ar    1  UNL1       -0.0487
     22 C          -0.1128   -2.1464   -1.4964 C.ar    1  UNL1        0.0517
     23 C           1.0915   -1.5258   -1.1501 C.ar    1  UNL1        0.2797
     24 O           2.0641   -1.8170   -1.9053 O.2     1  UNL1       -0.2652
     25 C           2.4897    1.2251    0.6066 C.ar    1  UNL1       -0.0327
     26 C           3.7109    1.7923    0.9053 C.ar    1  UNL1       -0.0179
     27 H           5.7213    3.0604    2.5219 H       1  UNL1        0.0660
     28 H           5.7594    3.7331    0.8848 H       1  UNL1        0.0660
     29 H           7.3284    3.2210    1.7299 H       1  UNL1        0.0660
     30 H           5.7477   -0.8147    0.3075 H       1  UNL1        0.0655
     31 H           3.6627   -1.8388   -0.2174 H       1  UNL1        0.0640
     32 H          -2.5219   -1.3043    1.9565 H       1  UNL1        0.1550
     33 H          -4.7383    0.2655    2.2227 H       1  UNL1        0.0670
     34 H          -5.8428    3.6424    0.9037 H       1  UNL1        0.0293
     35 H          -6.4726    2.2268    1.8711 H       1  UNL1        0.0293
     36 H          -6.7905    2.2644    0.1068 H       1  UNL1        0.0293
     37 H          -2.1551    1.0631   -0.9819 H       1  UNL1        0.1903
     38 H          -3.2843   -2.2665   -0.4334 H       1  UNL1        0.0625
     39 H          -3.4710   -3.8191   -2.3893 H       1  UNL1        0.0618
     40 H          -1.4702   -4.2834   -3.7651 H       1  UNL1        0.0618
     41 H           0.6806   -3.1846   -3.1568 H       1  UNL1        0.0625
     42 H           1.5613    1.8176    0.6953 H       1  UNL1        0.0640
     43 H           3.7805    2.8246    1.2306 H       1  UNL1        0.0655
@<TRIPOS>BOND
     1     1     2    1
     2     2     3    1
     3     3     4   ar
     4     4     5   ar
     5     5     6   ar
     6     6     7    1
     7     7     8   ar
     8     8     9   ar
     9     9    10    1
    10    10    11    1
    11    11    12   ar
    12    12    13   ar
    13    13    14    1
    14    13    15   ar
    15    15    16   ar
    16     9    17   ar
    17    17    18   ar
    18    18    19   ar
    19    19    20   ar
    20    20    21   ar
    21    21    22   ar
    22    22    23   ar
    23    23    24    2
    24     6    25   ar
    25    25    26   ar
    26    26     3   ar
    27    23     7   ar
    28    16    11   ar
    29    22    17   ar
    30     1    27    1
    31     1    28    1
    32     1    29    1
    33     4    30    1
    34     5    31    1
    35    10    32    1
    36    12    33    1
    37    14    34    1
    38    14    35    1
    39    14    36    1
    40    16    37    1
    41    18    38    1
    42    19    39    1
    43    20    40    1
    44    21    41    1
    45    25    42    1
    46    26    43    1
