
     RDKit          3D

 43 46  0  0  0  0  0  0  0  0999 V2000
    6.2707    3.0001    1.5379 C   0  0  0  0  0  0  0  0  0  0  0  0
    6.1274    1.6590    1.1094 O   0  0  0  0  0  0  0  0  0  0  0  0
    4.9061    1.1083    0.8156 C   0  0  0  0  0  0  0  0  0  0  0  0
    4.8375   -0.2065    0.4033 C   0  0  0  0  0  0  0  0  0  0  0  0
    3.6291   -0.7937    0.0998 C   0  0  0  0  0  0  0  0  0  0  0  0
    2.4582   -0.0889    0.1983 C   0  0  0  0  0  0  0  0  0  0  0  0
    1.2138   -0.6961   -0.1145 N   0  0  0  0  0  0  0  0  0  0  0  0
    0.1172   -0.4596    0.6163 N   0  0  0  0  0  0  0  0  0  0  0  0
   -1.0712   -1.0222    0.3396 C   0  0  0  0  0  0  0  0  0  0  0  0
   -2.2414   -0.7680    1.1133 N   0  0  0  0  0  0  0  0  0  0  0  0
   -3.1288    0.3046    0.7311 C   0  0  0  0  0  0  0  0  0  0  0  0
   -4.2917    0.7109    1.3290 C   0  0  0  0  0  0  0  0  0  0  0  0
   -4.8019    1.7883    0.5987 C   0  0  0  0  0  0  0  0  0  0  0  0
   -6.0603    2.5430    0.8965 C   0  0  0  0  0  0  0  0  0  0  0  0
   -3.9374    1.9890   -0.4006 N   0  0  0  0  0  0  0  0  0  0  0  0
   -2.9558    1.1244   -0.3292 N   0  0  0  0  0  0  0  0  0  0  0  0
   -1.2157   -1.8798   -0.7238 C   0  0  0  0  0  0  0  0  0  0  0  0
   -2.4257   -2.4877   -1.0523 C   0  0  0  0  0  0  0  0  0  0  0  0
   -2.5253   -3.3441   -2.1324 C   0  0  0  0  0  0  0  0  0  0  0  0
   -1.4239   -3.6174   -2.9131 C   0  0  0  0  0  0  0  0  0  0  0  0
   -0.2194   -2.9996   -2.5696 C   0  0  0  0  0  0  0  0  0  0  0  0
   -0.1128   -2.1464   -1.4964 C   0  0  0  0  0  0  0  0  0  0  0  0
    1.0915   -1.5258   -1.1501 C   0  0  0  0  0  0  0  0  0  0  0  0
    2.0641   -1.8170   -1.9053 O   0  0  0  0  0  0  0  0  0  0  0  0
    2.4897    1.2251    0.6066 C   0  0  0  0  0  0  0  0  0  0  0  0
    3.7109    1.7923    0.9053 C   0  0  0  0  0  0  0  0  0  0  0  0
    5.7213    3.0604    2.5219 H   0  0  0  0  0  0  0  0  0  0  0  0
    5.7594    3.7331    0.8848 H   0  0  0  0  0  0  0  0  0  0  0  0
    7.3284    3.2210    1.7299 H   0  0  0  0  0  0  0  0  0  0  0  0
    5.7477   -0.8147    0.3075 H   0  0  0  0  0  0  0  0  0  0  0  0
    3.6627   -1.8388   -0.2174 H   0  0  0  0  0  0  0  0  0  0  0  0
   -2.5219   -1.3043    1.9565 H   0  0  0  0  0  0  0  0  0  0  0  0
   -4.7383    0.2655    2.2227 H   0  0  0  0  0  0  0  0  0  0  0  0
   -5.8428    3.6424    0.9037 H   0  0  0  0  0  0  0  0  0  0  0  0
   -6.4726    2.2268    1.8711 H   0  0  0  0  0  0  0  0  0  0  0  0
   -6.7905    2.2644    0.1068 H   0  0  0  0  0  0  0  0  0  0  0  0
   -2.1551    1.0631   -0.9819 H   0  0  0  0  0  0  0  0  0  0  0  0
   -3.2843   -2.2665   -0.4334 H   0  0  0  0  0  0  0  0  0  0  0  0
   -3.4710   -3.8191   -2.3893 H   0  0  0  0  0  0  0  0  0  0  0  0
   -1.4702   -4.2834   -3.7651 H   0  0  0  0  0  0  0  0  0  0  0  0
    0.6806   -3.1846   -3.1568 H   0  0  0  0  0  0  0  0  0  0  0  0
    1.5613    1.8176    0.6953 H   0  0  0  0  0  0  0  0  0  0  0  0
    3.7805    2.8246    1.2306 H   0  0  0  0  0  0  0  0  0  0  0  0
  1  2  1  0
  2  3  1  0
  3  4  2  0
  4  5  1  0
  5  6  2  0
  6  7  1  0
  7  8  1  0
  8  9  2  0
  9 10  1  0
 10 11  1  0
 11 12  2  0
 12 13  1  0
 13 14  1  0
 13 15  2  0
 15 16  1  0
  9 17  1  0
 17 18  2  0
 18 19  1  0
 19 20  2  0
 20 21  1  0
 21 22  2  0
 22 23  1  0
 23 24  2  0
  6 25  1  0
 25 26  2  0
 26  3  1  0
 23  7  1  0
 16 11  1  0
 22 17  1  0
  1 27  1  0
  1 28  1  0
  1 29  1  0
  4 30  1  0
  5 31  1  0
 10 32  1  0
 12 33  1  0
 14 34  1  0
 14 35  1  0
 14 36  1  0
 16 37  1  0
 18 38  1  0
 19 39  1  0
 20 40  1  0
 21 41  1  0
 25 42  1  0
 26 43  1  0
M  END
$$$$
