@<TRIPOS>MOLECULE
*****
 48 51 0 0 0
SMALL
GASTEIGER

@<TRIPOS>ATOM
      1 C           4.9869    0.2832    1.4495 C.3     1  UNL1       -0.0200
      2 C           4.0698   -0.8891    1.4963 C.ar    1  UNL1        0.0691
      3 N           4.4559   -2.1181    1.9325 N.ar    1  UNL1       -0.1761
      4 N           3.4699   -2.9809    1.9028 N.ar    1  UNL1       -0.2736
      5 C           3.4722   -4.3902    2.2856 C.3     1  UNL1        0.0302
      6 C           2.4118   -2.3055    1.4368 C.ar    1  UNL1        0.0346
      7 C           2.7628   -0.9736    1.1690 C.ar    1  UNL1        0.0408
      8 C           1.8482    0.0578    0.6747 C.ar    1  UNL1        0.0801
      9 C           2.2338    1.2794    0.2317 C.ar    1  UNL1       -0.0076
     10 C           1.3286    2.2009   -0.2375 C.ar    1  UNL1        0.0999
     11 N           1.4856    3.4722   -0.7255 N.ar    1  UNL1       -0.1712
     12 N           0.3033    3.9259   -1.0399 N.ar    1  UNL1       -0.2732
     13 C           0.0341    5.2342   -1.5910 C.3     1  UNL1        0.0302
     14 C          -0.6395    2.9751   -0.7684 C.ar    1  UNL1        0.0380
     15 C          -0.0051    1.8583   -0.2522 C.ar    1  UNL1        0.0812
     16 C          -0.4245    0.6241    0.1912 C.ar    1  UNL1        0.2265
     17 O          -1.6759    0.2213    0.2100 O.3     1  UNL1       -0.4725
     18 C          -2.9499    0.5024   -0.0442 C.3     1  UNL1        0.1037
     19 C          -3.7433    0.3565    1.2812 C.3     1  UNL1       -0.0274
     20 C          -3.5294   -0.5065   -1.0469 C.3     1  UNL1        0.0196
     21 C          -2.7510   -0.4527   -2.3425 C.3     1  UNL1        0.0182
     22 N          -3.0895   -1.7273   -2.9456 N.am    1  UNL1       -0.3149
     23 C          -3.2924   -2.6656   -1.8959 C.2     1  UNL1        0.2135
     24 O          -3.4283   -3.9068   -2.0534 O.2     1  UNL1       -0.2758
     25 C          -3.3142   -1.9199   -0.5940 C.3     1  UNL1        0.0315
     26 N           0.5264   -0.2150    0.6329 N.ar    1  UNL1       -0.2121
     27 H           4.5905    1.1506    1.9854 H       1  UNL1        0.0293
     28 H           5.9711   -0.0029    1.9301 H       1  UNL1        0.0293
     29 H           5.2718    0.5262    0.4124 H       1  UNL1        0.0293
     30 H           2.5749   -4.8721    1.8897 H       1  UNL1        0.0473
     31 H           3.6199   -4.4970    3.3705 H       1  UNL1        0.0473
     32 H           4.3477   -4.8701    1.7580 H       1  UNL1        0.0473
     33 H           1.4174   -2.6809    1.2729 H       1  UNL1        0.0833
     34 H           3.2653    1.5647    0.2192 H       1  UNL1        0.0661
     35 H           0.5074    6.0451   -0.9797 H       1  UNL1        0.0473
     36 H          -1.0453    5.4278   -1.6648 H       1  UNL1        0.0473
     37 H           0.5254    5.2941   -2.5892 H       1  UNL1        0.0473
     38 H          -1.6803    3.0754   -0.9263 H       1  UNL1        0.0834
     39 H          -3.2300    1.4853   -0.4631 H       1  UNL1        0.0734
     40 H          -3.1429    0.8002    2.1072 H       1  UNL1        0.0265
     41 H          -3.9431   -0.6905    1.5072 H       1  UNL1        0.0265
     42 H          -4.6765    0.9603    1.2303 H       1  UNL1        0.0265
     43 H          -4.5886   -0.3310   -1.2426 H       1  UNL1        0.0356
     44 H          -3.0541    0.4047   -2.9805 H       1  UNL1        0.0466
     45 H          -1.6721   -0.4791   -2.1215 H       1  UNL1        0.0466
     46 H          -3.1637   -1.8962   -3.9725 H       1  UNL1        0.1487
     47 H          -4.1234   -2.3244    0.0288 H       1  UNL1        0.0363
     48 H          -2.3178   -2.0304   -0.1288 H       1  UNL1        0.0363
@<TRIPOS>BOND
     1     1     2    1
     2     2     3   ar
     3     3     4   ar
     4     4     5    1
     5     4     6   ar
     6     6     7   ar
     7     7     8    1
     8     8     9   ar
     9     9    10   ar
    10    10    11   ar
    11    11    12   ar
    12    12    13    1
    13    12    14   ar
    14    14    15   ar
    15    15    16   ar
    16    16    17    1
    17    17    18    1
    18    18    19    1
    19    18    20    1
    20    20    21    1
    21    21    22    1
    22    22    23   am
    23    23    24    2
    24    23    25    1
    25    16    26   ar
    26     7     2   ar
    27    26     8   ar
    28    15    10   ar
    29    25    20    1
    30     1    27    1
    31     1    28    1
    32     1    29    1
    33     5    30    1
    34     5    31    1
    35     5    32    1
    36     6    33    1
    37     9    34    1
    38    13    35    1
    39    13    36    1
    40    13    37    1
    41    14    38    1
    42    18    39    1
    43    19    40    1
    44    19    41    1
    45    19    42    1
    46    20    43    1
    47    21    44    1
    48    21    45    1
    49    22    46    1
    50    25    47    1
    51    25    48    1
