
     RDKit          3D

 48 51  0  0  0  0  0  0  0  0999 V2000
    4.9869    0.2832    1.4495 C   0  0  0  0  0  0  0  0  0  0  0  0
    4.0698   -0.8891    1.4963 C   0  0  0  0  0  0  0  0  0  0  0  0
    4.4559   -2.1181    1.9325 N   0  0  0  0  0  0  0  0  0  0  0  0
    3.4699   -2.9809    1.9028 N   0  0  0  0  0  0  0  0  0  0  0  0
    3.4722   -4.3902    2.2856 C   0  0  0  0  0  0  0  0  0  0  0  0
    2.4118   -2.3055    1.4368 C   0  0  0  0  0  0  0  0  0  0  0  0
    2.7628   -0.9736    1.1690 C   0  0  0  0  0  0  0  0  0  0  0  0
    1.8482    0.0578    0.6747 C   0  0  0  0  0  0  0  0  0  0  0  0
    2.2338    1.2794    0.2317 C   0  0  0  0  0  0  0  0  0  0  0  0
    1.3286    2.2009   -0.2375 C   0  0  0  0  0  0  0  0  0  0  0  0
    1.4856    3.4722   -0.7255 N   0  0  0  0  0  0  0  0  0  0  0  0
    0.3033    3.9259   -1.0399 N   0  0  0  0  0  0  0  0  0  0  0  0
    0.0341    5.2342   -1.5910 C   0  0  0  0  0  0  0  0  0  0  0  0
   -0.6395    2.9751   -0.7684 C   0  0  0  0  0  0  0  0  0  0  0  0
   -0.0051    1.8583   -0.2522 C   0  0  0  0  0  0  0  0  0  0  0  0
   -0.4245    0.6241    0.1912 C   0  0  0  0  0  0  0  0  0  0  0  0
   -1.6759    0.2213    0.2100 O   0  0  0  0  0  0  0  0  0  0  0  0
   -2.9499    0.5024   -0.0442 C   0  0  2  0  0  0  0  0  0  0  0  0
   -3.7433    0.3565    1.2812 C   0  0  0  0  0  0  0  0  0  0  0  0
   -3.5294   -0.5065   -1.0469 C   0  0  1  0  0  0  0  0  0  0  0  0
   -2.7510   -0.4527   -2.3425 C   0  0  0  0  0  0  0  0  0  0  0  0
   -3.0895   -1.7273   -2.9456 N   0  0  0  0  0  0  0  0  0  0  0  0
   -3.2924   -2.6656   -1.8959 C   0  0  0  0  0  0  0  0  0  0  0  0
   -3.4283   -3.9068   -2.0534 O   0  0  0  0  0  0  0  0  0  0  0  0
   -3.3142   -1.9199   -0.5940 C   0  0  0  0  0  0  0  0  0  0  0  0
    0.5264   -0.2150    0.6329 N   0  0  0  0  0  0  0  0  0  0  0  0
    4.5905    1.1506    1.9854 H   0  0  0  0  0  0  0  0  0  0  0  0
    5.9711   -0.0029    1.9301 H   0  0  0  0  0  0  0  0  0  0  0  0
    5.2718    0.5262    0.4124 H   0  0  0  0  0  0  0  0  0  0  0  0
    2.5749   -4.8721    1.8897 H   0  0  0  0  0  0  0  0  0  0  0  0
    3.6199   -4.4970    3.3705 H   0  0  0  0  0  0  0  0  0  0  0  0
    4.3477   -4.8701    1.7580 H   0  0  0  0  0  0  0  0  0  0  0  0
    1.4174   -2.6809    1.2729 H   0  0  0  0  0  0  0  0  0  0  0  0
    3.2653    1.5647    0.2192 H   0  0  0  0  0  0  0  0  0  0  0  0
    0.5074    6.0451   -0.9797 H   0  0  0  0  0  0  0  0  0  0  0  0
   -1.0453    5.4278   -1.6648 H   0  0  0  0  0  0  0  0  0  0  0  0
    0.5254    5.2941   -2.5892 H   0  0  0  0  0  0  0  0  0  0  0  0
   -1.6803    3.0754   -0.9263 H   0  0  0  0  0  0  0  0  0  0  0  0
   -3.2300    1.4853   -0.4631 H   0  0  0  0  0  0  0  0  0  0  0  0
   -3.1429    0.8002    2.1072 H   0  0  0  0  0  0  0  0  0  0  0  0
   -3.9431   -0.6905    1.5072 H   0  0  0  0  0  0  0  0  0  0  0  0
   -4.6765    0.9603    1.2303 H   0  0  0  0  0  0  0  0  0  0  0  0
   -4.5886   -0.3310   -1.2426 H   0  0  0  0  0  0  0  0  0  0  0  0
   -3.0541    0.4047   -2.9805 H   0  0  0  0  0  0  0  0  0  0  0  0
   -1.6721   -0.4791   -2.1215 H   0  0  0  0  0  0  0  0  0  0  0  0
   -3.1637   -1.8962   -3.9725 H   0  0  0  0  0  0  0  0  0  0  0  0
   -4.1234   -2.3244    0.0288 H   0  0  0  0  0  0  0  0  0  0  0  0
   -2.3178   -2.0304   -0.1288 H   0  0  0  0  0  0  0  0  0  0  0  0
  1  2  1  0
  2  3  2  0
  3  4  1  0
  4  5  1  0
  4  6  1  0
  6  7  2  0
  7  8  1  0
  8  9  2  0
  9 10  1  0
 10 11  2  0
 11 12  1  0
 12 13  1  0
 12 14  1  0
 14 15  2  0
 15 16  1  0
 16 17  1  0
 17 18  1  0
 18 19  1  0
 18 20  1  0
 20 21  1  0
 21 22  1  0
 22 23  1  0
 23 24  2  0
 23 25  1  0
 16 26  2  0
  7  2  1  0
 26  8  1  0
 15 10  1  0
 25 20  1  0
  1 27  1  0
  1 28  1  0
  1 29  1  0
  5 30  1  0
  5 31  1  0
  5 32  1  0
  6 33  1  0
  9 34  1  0
 13 35  1  0
 13 36  1  0
 13 37  1  0
 14 38  1  0
 18 39  1  6
 19 40  1  0
 19 41  1  0
 19 42  1  0
 20 43  1  6
 21 44  1  0
 21 45  1  0
 22 46  1  0
 25 47  1  0
 25 48  1  0
M  END
$$$$
