
     RDKit          3D

 71 72  0  0  0  0  0  0  0  0999 V2000
   -8.3396    2.8643   -0.3991 C   0  0  0  0  0  0  0  0  0  0  0  0
   -7.4015    1.7693    0.0392 C   0  0  0  0  0  0  0  0  0  0  0  0
   -7.8088    0.4253   -0.5331 C   0  0  0  0  0  0  0  0  0  0  0  0
   -7.4556    1.6282    1.5470 C   0  0  0  0  0  0  0  0  0  0  0  0
   -6.0686    2.0203   -0.4177 O   0  0  0  0  0  0  0  0  0  0  0  0
   -5.0301    1.1664   -0.1434 C   0  0  0  0  0  0  0  0  0  0  0  0
   -5.3152    0.1348    0.5375 O   0  0  0  0  0  0  0  0  0  0  0  0
   -3.6692    1.3609   -0.5749 N   0  0  0  0  0  0  0  0  0  0  0  0
   -2.7023    0.3368   -0.1881 C   0  0  2  0  0  0  0  0  0  0  0  0
   -1.4803    0.8693    0.4102 C   0  0  0  0  0  0  0  0  0  0  0  0
   -1.2625    2.1222    0.3765 O   0  0  0  0  0  0  0  0  0  0  0  0
   -0.5531   -0.0125    1.0240 N   0  0  0  0  0  0  0  0  0  0  0  0
   -0.8097   -1.4493    1.1188 C   0  0  0  0  0  0  0  0  0  0  0  0
    0.0154   -1.9034    2.3357 C   0  0  0  0  0  0  0  0  0  0  0  0
    1.2667   -1.0589    2.1137 C   0  0  0  0  0  0  0  0  0  0  0  0
    0.7159    0.2510    1.6362 C   0  0  1  0  0  0  0  0  0  0  0  0
    1.6694    1.0564    0.8597 C   0  0  0  0  0  0  0  0  0  0  0  0
    1.3367    2.1063    0.2760 O   0  0  0  0  0  0  0  0  0  0  0  0
    3.0213    0.6201    0.7660 N   0  0  0  0  0  0  0  0  0  0  0  0
    4.0810    1.2825    0.0627 C   0  0  2  0  0  0  0  0  0  0  0  0
    3.7850    1.4975   -1.3824 C   0  0  0  0  0  0  0  0  0  0  0  0
    2.7861    1.1023   -1.8875 O   0  0  0  0  0  0  0  0  0  0  0  0
    5.3774    0.5809    0.3093 C   0  0  0  0  0  0  0  0  0  0  0  0
    5.3220   -0.8664   -0.0869 C   0  0  0  0  0  0  0  0  0  0  0  0
    6.6710   -1.4902    0.1733 C   0  0  0  0  0  0  0  0  0  0  0  0
    7.6873   -0.8778   -0.6398 N   0  0  0  0  0  0  0  0  0  0  0  0
    8.9098   -1.1173   -0.3578 C   0  0  0  0  0  0  0  0  0  0  0  0
    9.2662   -1.9666    0.7383 N   0  0  0  0  0  0  0  0  0  0  0  0
    9.9416   -0.5487   -1.1367 N   0  0  0  0  0  0  0  0  0  0  0  0
   -2.4099   -0.3684   -1.5051 C   0  0  0  0  0  0  0  0  0  0  0  0
   -1.9902    0.3255   -2.6225 C   0  0  0  0  0  0  0  0  0  0  0  0
   -1.7391   -0.3007   -3.8211 C   0  0  0  0  0  0  0  0  0  0  0  0
   -1.9269   -1.6850   -3.8654 C   0  0  0  0  0  0  0  0  0  0  0  0
   -1.6996   -2.3705   -4.9924 F   0  0  0  0  0  0  0  0  0  0  0  0
   -2.3485   -2.3928   -2.7529 C   0  0  0  0  0  0  0  0  0  0  0  0
   -2.5785   -1.7122   -1.5999 C   0  0  0  0  0  0  0  0  0  0  0  0
   -9.1663    2.9232    0.3334 H   0  0  0  0  0  0  0  0  0  0  0  0
   -8.8167    2.5097   -1.3482 H   0  0  0  0  0  0  0  0  0  0  0  0
   -7.8445    3.8372   -0.5150 H   0  0  0  0  0  0  0  0  0  0  0  0
   -7.0384    0.0236   -1.2347 H   0  0  0  0  0  0  0  0  0  0  0  0
   -7.8827   -0.3583    0.2707 H   0  0  0  0  0  0  0  0  0  0  0  0
   -8.7837    0.5764   -1.0483 H   0  0  0  0  0  0  0  0  0  0  0  0
   -8.3834    2.1478    1.8808 H   0  0  0  0  0  0  0  0  0  0  0  0
   -7.5695    0.5720    1.8596 H   0  0  0  0  0  0  0  0  0  0  0  0
   -6.6171    2.1610    2.0438 H   0  0  0  0  0  0  0  0  0  0  0  0
   -3.4515    2.2035   -1.1285 H   0  0  0  0  0  0  0  0  0  0  0  0
   -3.1869   -0.3704    0.4710 H   0  0  0  0  0  0  0  0  0  0  0  0
   -1.8643   -1.6767    1.2885 H   0  0  0  0  0  0  0  0  0  0  0  0
   -0.4569   -1.9817    0.2294 H   0  0  0  0  0  0  0  0  0  0  0  0
   -0.4207   -1.5456    3.2754 H   0  0  0  0  0  0  0  0  0  0  0  0
    0.1787   -2.9639    2.3777 H   0  0  0  0  0  0  0  0  0  0  0  0
    1.8748   -1.5444    1.3235 H   0  0  0  0  0  0  0  0  0  0  0  0
    1.8884   -0.9743    3.0066 H   0  0  0  0  0  0  0  0  0  0  0  0
    0.5057    0.9206    2.5588 H   0  0  0  0  0  0  0  0  0  0  0  0
    3.2679   -0.2476    1.2825 H   0  0  0  0  0  0  0  0  0  0  0  0
    4.1311    2.3246    0.4712 H   0  0  0  0  0  0  0  0  0  0  0  0
    4.4917    2.0371   -2.0324 H   0  0  0  0  0  0  0  0  0  0  0  0
    6.2089    1.0294   -0.3178 H   0  0  0  0  0  0  0  0  0  0  0  0
    5.7015    0.6779    1.3390 H   0  0  0  0  0  0  0  0  0  0  0  0
    5.0693   -0.9028   -1.1654 H   0  0  0  0  0  0  0  0  0  0  0  0
    4.5996   -1.4612    0.5056 H   0  0  0  0  0  0  0  0  0  0  0  0
    6.5878   -2.5891   -0.0475 H   0  0  0  0  0  0  0  0  0  0  0  0
    6.9341   -1.4136    1.2348 H   0  0  0  0  0  0  0  0  0  0  0  0
    9.7854   -2.8468    0.5665 H   0  0  0  0  0  0  0  0  0  0  0  0
    8.9914   -1.6796    1.7116 H   0  0  0  0  0  0  0  0  0  0  0  0
   10.8283   -0.2284   -0.7018 H   0  0  0  0  0  0  0  0  0  0  0  0
    9.8368   -0.4363   -2.1714 H   0  0  0  0  0  0  0  0  0  0  0  0
   -1.8542    1.4076   -2.5621 H   0  0  0  0  0  0  0  0  0  0  0  0
   -1.4090    0.2384   -4.7184 H   0  0  0  0  0  0  0  0  0  0  0  0
   -2.4853   -3.4921   -2.8149 H   0  0  0  0  0  0  0  0  0  0  0  0
   -2.9141   -2.2771   -0.7431 H   0  0  0  0  0  0  0  0  0  0  0  0
  1  2  1  0
  2  3  1  0
  2  4  1  0
  2  5  1  0
  5  6  1  0
  6  7  2  0
  6  8  1  0
  8  9  1  0
  9 10  1  0
 10 11  2  0
 10 12  1  0
 12 13  1  0
 13 14  1  0
 14 15  1  0
 15 16  1  0
 16 17  1  0
 17 18  2  0
 17 19  1  0
 19 20  1  0
 20 21  1  0
 21 22  2  0
 20 23  1  0
 23 24  1  0
 24 25  1  0
 25 26  1  0
 26 27  2  3
 27 28  1  0
 27 29  1  0
  9 30  1  0
 30 31  2  0
 31 32  1  0
 32 33  2  0
 33 34  1  0
 33 35  1  0
 35 36  2  0
 16 12  1  0
 36 30  1  0
  1 37  1  0
  1 38  1  0
  1 39  1  0
  3 40  1  0
  3 41  1  0
  3 42  1  0
  4 43  1  0
  4 44  1  0
  4 45  1  0
  8 46  1  0
  9 47  1  1
 13 48  1  0
 13 49  1  0
 14 50  1  0
 14 51  1  0
 15 52  1  0
 15 53  1  0
 16 54  1  1
 19 55  1  0
 20 56  1  1
 21 57  1  0
 23 58  1  0
 23 59  1  0
 24 60  1  0
 24 61  1  0
 25 62  1  0
 25 63  1  0
 28 64  1  0
 28 65  1  0
 29 66  1  0
 29 67  1  0
 31 68  1  0
 32 69  1  0
 35 70  1  0
 36 71  1  0
M  END
$$$$
