@<TRIPOS>MOLECULE
*****
 71 72 0 0 0
SMALL
GASTEIGER

@<TRIPOS>ATOM
      1 C          -8.3396    2.8643   -0.3991 C.3     0  UNK0       -0.0253
      2 C          -7.4015    1.7693    0.0392 C.3     0  UNK0        0.1068
      3 C          -7.8088    0.4253   -0.5331 C.3     0  UNK0       -0.0253
      4 C          -7.4556    1.6282    1.5470 C.3     0  UNK0       -0.0253
      5 O          -6.0686    2.0203   -0.4177 O.3     0  UNK0       -0.4447
      6 C          -5.0301    1.1664   -0.1434 C.2     0  UNK0        0.4016
      7 O          -5.3152    0.1348    0.5375 O.2     0  UNK0       -0.2264
      8 N          -3.6692    1.3609   -0.5749 N.am    1  UNK1       -0.2658
      9 C          -2.7023    0.3368   -0.1881 C.3     1  UNK1        0.1279
     10 C          -1.4803    0.8693    0.4102 C.2     1  UNK1        0.2411
     11 O          -1.2625    2.1222    0.3765 O.2     1  UNK1       -0.2732
     12 N          -0.5531   -0.0125    1.0240 N.am    2  PRO2       -0.2881
     13 CD         -0.8097   -1.4493    1.1188 C.3     2  PRO2        0.0156
     14 CG          0.0154   -1.9034    2.3357 C.3     2  PRO2       -0.0350
     15 CB          1.2667   -1.0589    2.1137 C.3     2  PRO2       -0.0243
     16 CA          0.7159    0.2510    1.6362 C.3     2  PRO2        0.1023
     17 C           1.6694    1.0564    0.8597 C.2     2  PRO2        0.2341
     18 O           1.3367    2.1063    0.2760 O.2     2  PRO2       -0.2738
     19 N           3.0213    0.6201    0.7660 N.am    3  ARG3       -0.3044
     20 CA          4.0810    1.2825    0.0627 C.3     3  ARG3        0.0786
     21 C           3.7850    1.4975   -1.3824 C.2     3  ARG3        0.1404
     22 O           2.7861    1.1023   -1.8875 O.2     3  ARG3       -0.2991
     23 CB          5.3774    0.5809    0.3093 C.3     3  ARG3       -0.0249
     24 CG          5.3220   -0.8664   -0.0869 C.3     3  ARG3       -0.0166
     25 CD          6.6710   -1.4902    0.1733 C.3     3  ARG3        0.1048
     26 NE          7.6873   -0.8778   -0.6398 N.pl3   3  ARG3       -0.1138
     27 CZ          8.9098   -1.1173   -0.3578 C.cat   3  ARG3        0.3765
     28 NH1         9.2662   -1.9666    0.7383 N.pl3   3  ARG3       -0.2893
     29 NH2         9.9416   -0.5487   -1.1367 N.pl3   3  ARG3       -0.2893
     30 C          -2.4099   -0.3684   -1.5051 C.ar    1  UNK1       -0.0181
     31 C          -1.9902    0.3255   -2.6225 C.ar    1  UNK1       -0.0536
     32 C          -1.7391   -0.3007   -3.8211 C.ar    1  UNK1       -0.0261
     33 C          -1.9269   -1.6850   -3.8654 C.ar    1  UNK1        0.1234
     34 F          -1.6996   -2.3705   -4.9924 F       1  UNK1       -0.2055
     35 C          -2.3485   -2.3928   -2.7529 C.ar    1  UNK1       -0.0261
     36 C          -2.5785   -1.7122   -1.5999 C.ar    1  UNK1       -0.0536
     37 H          -9.1663    2.9232    0.3334 H       0  UNK0        0.0268
     38 H          -8.8167    2.5097   -1.3482 H       0  UNK0        0.0268
     39 H          -7.8445    3.8372   -0.5150 H       0  UNK0        0.0268
     40 H          -7.0384    0.0236   -1.2347 H       0  UNK0        0.0268
     41 H          -7.8827   -0.3583    0.2707 H       0  UNK0        0.0268
     42 H          -8.7837    0.5764   -1.0483 H       0  UNK0        0.0268
     43 H          -8.3834    2.1478    1.8808 H       0  UNK0        0.0268
     44 H          -7.5695    0.5720    1.8596 H       0  UNK0        0.0268
     45 H          -6.6171    2.1610    2.0438 H       0  UNK0        0.0268
     46 H          -3.4515    2.2035   -1.1285 H       1  UNK1        0.1531
     47 H          -3.1869   -0.3704    0.4710 H       1  UNK1        0.0647
     48 HD1        -1.8643   -1.6767    1.2885 H       2  PRO2        0.0465
     49 HD2        -0.4569   -1.9817    0.2294 H       2  PRO2        0.0465
     50 HG1        -0.4207   -1.5456    3.2754 H       2  PRO2        0.0281
     51 HG2         0.1787   -2.9639    2.3777 H       2  PRO2        0.0281
     52 HB1         1.8748   -1.5444    1.3235 H       2  PRO2        0.0288
     53 HB2         1.8884   -0.9743    3.0066 H       2  PRO2        0.0288
     54 HA          0.5057    0.9206    2.5588 H       2  PRO2        0.0597
     55 H           3.2679   -0.2476    1.2825 H       3  ARG3        0.1494
     56 HA          4.1311    2.3246    0.4712 H       3  ARG3        0.0574
     57 H           4.4917    2.0371   -2.0324 H       3  ARG3        0.1046
     58 HB1         6.2089    1.0294   -0.3178 H       3  ARG3        0.0288
     59 HB2         5.7015    0.6779    1.3390 H       3  ARG3        0.0288
     60 HG1         5.0693   -0.9028   -1.1654 H       3  ARG3        0.0298
     61 HG2         4.5996   -1.4612    0.5056 H       3  ARG3        0.0298
     62 HD1         6.5878   -2.5891   -0.0475 H       3  ARG3        0.0693
     63 HD2         6.9341   -1.4136    1.2348 H       3  ARG3        0.0693
     64 HH11        9.7854   -2.8468    0.5665 H       3  ARG3        0.2546
     65 HH12        8.9914   -1.6796    1.7116 H       3  ARG3        0.2546
     66 HH21       10.8283   -0.2284   -0.7018 H       3  ARG3        0.2546
     67 HH22        9.8368   -0.4363   -2.1714 H       3  ARG3        0.2546
     68 H          -1.8542    1.4076   -2.5621 H       1  UNK1        0.0622
     69 H          -1.4090    0.2384   -4.7184 H       1  UNK1        0.0646
     70 H          -2.4853   -3.4921   -2.8149 H       1  UNK1        0.0646
     71 H          -2.9141   -2.2771   -0.7431 H       1  UNK1        0.0622
@<TRIPOS>BOND
     1     1     2    1
     2     2     3    1
     3     2     4    1
     4     2     5    1
     5     5     6    1
     6     6     7    2
     7     6     8   am
     8     8     9    1
     9     9    10    1
    10    10    11    2
    11    10    12   am
    12    12    13    1
    13    13    14    1
    14    14    15    1
    15    15    16    1
    16    16    17    1
    17    17    18    2
    18    17    19   am
    19    19    20    1
    20    20    21    1
    21    21    22    2
    22    20    23    1
    23    23    24    1
    24    24    25    1
    25    25    26    1
    26    26    27    2
    27    27    28    1
    28    27    29    1
    29     9    30    1
    30    30    31   ar
    31    31    32   ar
    32    32    33   ar
    33    33    34    1
    34    33    35   ar
    35    35    36   ar
    36    16    12    1
    37    36    30   ar
    38     1    37    1
    39     1    38    1
    40     1    39    1
    41     3    40    1
    42     3    41    1
    43     3    42    1
    44     4    43    1
    45     4    44    1
    46     4    45    1
    47     8    46    1
    48     9    47    1
    49    13    48    1
    50    13    49    1
    51    14    50    1
    52    14    51    1
    53    15    52    1
    54    15    53    1
    55    16    54    1
    56    19    55    1
    57    20    56    1
    58    21    57    1
    59    23    58    1
    60    23    59    1
    61    24    60    1
    62    24    61    1
    63    25    62    1
    64    25    63    1
    65    28    64    1
    66    28    65    1
    67    29    66    1
    68    29    67    1
    69    31    68    1
    70    32    69    1
    71    35    70    1
    72    36    71    1
