
     RDKit          3D

 40 42  0  0  0  0  0  0  0  0999 V2000
   -4.2905   -2.4649   -0.2140 C   0  0  0  0  0  0  0  0  0  0  0  0
   -3.0465   -1.7314   -0.3466 N   0  0  0  0  0  0  0  0  0  0  0  0
   -3.1170   -0.5990    0.5497 C   0  0  0  0  0  0  0  0  0  0  0  0
   -1.8341    0.1709    0.4241 C   0  0  2  0  0  0  0  0  0  0  0  0
   -1.6296    0.6683   -1.0166 C   0  0  0  0  0  0  0  0  0  0  0  0
   -0.5159    1.6473   -0.8842 C   0  0  0  0  0  0  0  0  0  0  0  0
   -0.4792    2.8051   -1.6411 C   0  0  0  0  0  0  0  0  0  0  0  0
    0.5445    3.7234   -1.5306 C   0  0  0  0  0  0  0  0  0  0  0  0
    1.5836    3.5159   -0.6477 C   0  0  0  0  0  0  0  0  0  0  0  0
    1.5603    2.3707    0.1102 C   0  0  0  0  0  0  0  0  0  0  0  0
    0.5180    1.4355   -0.0021 C   0  0  0  0  0  0  0  0  0  0  0  0
    0.5656    0.2218    0.8517 C   0  0  2  0  0  0  0  0  0  0  0  0
    1.8608   -0.4938    0.7521 C   0  0  0  0  0  0  0  0  0  0  0  0
    2.8902   -0.2461    1.6369 C   0  0  0  0  0  0  0  0  0  0  0  0
    4.0995   -0.9106    1.5450 C   0  0  0  0  0  0  0  0  0  0  0  0
    4.3132   -1.8357    0.5727 C   0  0  0  0  0  0  0  0  0  0  0  0
    5.8569   -2.6622    0.4812 Cl  0  0  0  0  0  0  0  0  0  0  0  0
    3.3165   -2.1063   -0.3204 C   0  0  0  0  0  0  0  0  0  0  0  0
    3.5520   -3.3047   -1.6037 Cl  0  0  0  0  0  0  0  0  0  0  0  0
    2.1105   -1.4434   -0.2285 C   0  0  0  0  0  0  0  0  0  0  0  0
   -0.6152   -0.6878    0.6897 C   0  0  0  0  0  0  0  0  0  0  0  0
   -5.1263   -1.7725   -0.3636 H   0  0  0  0  0  0  0  0  0  0  0  0
   -4.2796   -2.9602    0.7693 H   0  0  0  0  0  0  0  0  0  0  0  0
   -4.3144   -3.2060   -1.0495 H   0  0  0  0  0  0  0  0  0  0  0  0
   -2.9008   -1.3704   -1.3137 H   0  0  0  0  0  0  0  0  0  0  0  0
   -3.9405    0.0986    0.2777 H   0  0  0  0  0  0  0  0  0  0  0  0
   -3.2244   -0.8967    1.6027 H   0  0  0  0  0  0  0  0  0  0  0  0
   -1.7794    1.0355    1.1154 H   0  0  0  0  0  0  0  0  0  0  0  0
   -2.5553    1.1278   -1.3885 H   0  0  0  0  0  0  0  0  0  0  0  0
   -1.2792   -0.1847   -1.6630 H   0  0  0  0  0  0  0  0  0  0  0  0
   -1.3114    2.9449   -2.3303 H   0  0  0  0  0  0  0  0  0  0  0  0
    0.5214    4.6054   -2.1436 H   0  0  0  0  0  0  0  0  0  0  0  0
    2.3869    4.2485   -0.5692 H   0  0  0  0  0  0  0  0  0  0  0  0
    2.3847    2.2207    0.8007 H   0  0  0  0  0  0  0  0  0  0  0  0
    0.5082    0.5936    1.9193 H   0  0  0  0  0  0  0  0  0  0  0  0
    2.7231    0.5016    2.4287 H   0  0  0  0  0  0  0  0  0  0  0  0
    4.8755   -0.6705    2.2752 H   0  0  0  0  0  0  0  0  0  0  0  0
    1.3595   -1.6803   -0.9405 H   0  0  0  0  0  0  0  0  0  0  0  0
   -0.5195   -1.3703   -0.1819 H   0  0  0  0  0  0  0  0  0  0  0  0
   -0.7721   -1.3382    1.5769 H   0  0  0  0  0  0  0  0  0  0  0  0
  1  2  1  0
  2  3  1  0
  3  4  1  0
  4  5  1  0
  5  6  1  0
  6  7  2  0
  7  8  1  0
  8  9  2  0
  9 10  1  0
 10 11  2  0
 11 12  1  0
 12 13  1  0
 13 14  2  0
 14 15  1  0
 15 16  2  0
 16 17  1  0
 16 18  1  0
 18 19  1  0
 18 20  2  0
 12 21  1  0
 21  4  1  0
 11  6  1  0
 20 13  1  0
  1 22  1  0
  1 23  1  0
  1 24  1  0
  2 25  1  0
  3 26  1  0
  3 27  1  0
  4 28  1  1
  5 29  1  0
  5 30  1  0
  7 31  1  0
  8 32  1  0
  9 33  1  0
 10 34  1  0
 12 35  1  1
 14 36  1  0
 15 37  1  0
 20 38  1  0
 21 39  1  0
 21 40  1  0
M  END
$$$$
