@<TRIPOS>MOLECULE
*****
 40 42 0 0 0
SMALL
GASTEIGER

@<TRIPOS>ATOM
      1 C          -4.2905   -2.4649   -0.2140 C.3     1  UNL1       -0.0158
      2 N          -3.0465   -1.7314   -0.3466 N.3     1  UNL1       -0.3187
      3 C          -3.1170   -0.5990    0.5497 C.3     1  UNL1       -0.0012
      4 C          -1.8341    0.1709    0.4241 C.3     1  UNL1       -0.0237
      5 C          -1.6296    0.6683   -1.0166 C.3     1  UNL1       -0.0234
      6 C          -0.5159    1.6473   -0.8842 C.ar    1  UNL1       -0.0433
      7 C          -0.4792    2.8051   -1.6411 C.ar    1  UNL1       -0.0583
      8 C           0.5445    3.7234   -1.5306 C.ar    1  UNL1       -0.0615
      9 C           1.5836    3.5159   -0.6477 C.ar    1  UNL1       -0.0615
     10 C           1.5603    2.3707    0.1102 C.ar    1  UNL1       -0.0577
     11 C           0.5180    1.4355   -0.0021 C.ar    1  UNL1       -0.0368
     12 C           0.5656    0.2218    0.8517 C.3     1  UNL1        0.0098
     13 C           1.8608   -0.4938    0.7521 C.ar    1  UNL1       -0.0385
     14 C           2.8902   -0.2461    1.6369 C.ar    1  UNL1       -0.0565
     15 C           4.0995   -0.9106    1.5450 C.ar    1  UNL1       -0.0417
     16 C           4.3132   -1.8357    0.5727 C.ar    1  UNL1        0.0593
     17 CL          5.8569   -2.6622    0.4812 Cl      1  UNL1       -0.0820
     18 C           3.3165   -2.1063   -0.3204 C.ar    1  UNL1        0.0595
     19 CL          3.5520   -3.3047   -1.6037 Cl      1  UNL1       -0.0820
     20 C           2.1105   -1.4434   -0.2285 C.ar    1  UNL1       -0.0382
     21 C          -0.6152   -0.6878    0.6897 C.3     1  UNL1       -0.0379
     22 H          -5.1263   -1.7725   -0.3636 H       1  UNL1        0.0388
     23 H          -4.2796   -2.9602    0.7693 H       1  UNL1        0.0388
     24 H          -4.3144   -3.2060   -1.0495 H       1  UNL1        0.0388
     25 H          -2.9008   -1.3704   -1.3137 H       1  UNL1        0.1216
     26 H          -3.9405    0.0986    0.2777 H       1  UNL1        0.0427
     27 H          -3.2244   -0.8967    1.6027 H       1  UNL1        0.0427
     28 H          -1.7794    1.0355    1.1154 H       1  UNL1        0.0316
     29 H          -2.5553    1.1278   -1.3885 H       1  UNL1        0.0316
     30 H          -1.2792   -0.1847   -1.6630 H       1  UNL1        0.0316
     31 H          -1.3114    2.9449   -2.3303 H       1  UNL1        0.0620
     32 H           0.5214    4.6054   -2.1436 H       1  UNL1        0.0618
     33 H           2.3869    4.2485   -0.5692 H       1  UNL1        0.0618
     34 H           2.3847    2.2207    0.8007 H       1  UNL1        0.0621
     35 H           0.5082    0.5936    1.9193 H       1  UNL1        0.0397
     36 H           2.7231    0.5016    2.4287 H       1  UNL1        0.0621
     37 H           4.8755   -0.6705    2.2752 H       1  UNL1        0.0633
     38 H           1.3595   -1.6803   -0.9405 H       1  UNL1        0.0635
     39 H          -0.5195   -1.3703   -0.1819 H       1  UNL1        0.0277
     40 H          -0.7721   -1.3382    1.5769 H       1  UNL1        0.0277
@<TRIPOS>BOND
     1     1     2    1
     2     2     3    1
     3     3     4    1
     4     4     5    1
     5     5     6    1
     6     6     7   ar
     7     7     8   ar
     8     8     9   ar
     9     9    10   ar
    10    10    11   ar
    11    11    12    1
    12    12    13    1
    13    13    14   ar
    14    14    15   ar
    15    15    16   ar
    16    16    17    1
    17    16    18   ar
    18    18    19    1
    19    18    20   ar
    20    12    21    1
    21    21     4    1
    22    11     6   ar
    23    20    13   ar
    24     1    22    1
    25     1    23    1
    26     1    24    1
    27     2    25    1
    28     3    26    1
    29     3    27    1
    30     4    28    1
    31     5    29    1
    32     5    30    1
    33     7    31    1
    34     8    32    1
    35     9    33    1
    36    10    34    1
    37    12    35    1
    38    14    36    1
    39    15    37    1
    40    20    38    1
    41    21    39    1
    42    21    40    1
