@<TRIPOS>MOLECULE
*****
 50 54 0 0 0
SMALL
GASTEIGER

@<TRIPOS>ATOM
      1 C          -6.4329   -2.2153    0.5225 C.3     1  UNL1        0.0124
      2 C          -5.1283   -2.8929    0.6057 C.2     1  UNL1        0.2129
      3 O          -5.1076   -4.1449    0.6506 O.2     1  UNL1       -0.2759
      4 N          -3.8936   -2.1974    0.6374 N.am    1  UNL1       -0.2927
      5 C          -2.6522   -2.9171    0.7198 C.3     1  UNL1        0.0331
      6 C          -1.5815   -2.3242   -0.1699 C.3     1  UNL1        0.0408
      7 N          -1.5500   -0.8856   -0.0748 N.ar    1  UNL1       -0.3242
      8 C          -2.6230   -0.1755    0.2663 C.ar    1  UNL1        0.1283
      9 N          -2.2630    1.1253    0.2626 N.ar    1  UNL1       -0.2300
     10 C          -0.9463    1.2056   -0.0875 C.ar    1  UNL1        0.0971
     11 C          -0.1737    2.4356   -0.2081 C.ar    1  UNL1        0.0026
     12 C          -0.0029    3.2448    0.8948 C.ar    1  UNL1       -0.0498
     13 C           0.7222    4.4257    0.8365 C.ar    1  UNL1       -0.0258
     14 C           1.2923    4.8139   -0.3448 C.ar    1  UNL1        0.1234
     15 F           2.0017    5.9830   -0.3734 F       1  UNL1       -0.2055
     16 C           1.1409    4.0308   -1.4606 C.ar    1  UNL1       -0.0258
     17 C           0.4118    2.8513   -1.3855 C.ar    1  UNL1       -0.0498
     18 C          -0.4879   -0.0765   -0.3037 C.ar    1  UNL1        0.0781
     19 C           0.8720   -0.4293   -0.6964 C.ar    1  UNL1        0.0173
     20 C           1.1727   -1.0796   -1.8752 C.ar    1  UNL1       -0.0477
     21 C           2.4643   -1.4075   -2.2341 C.ar    1  UNL1       -0.0182
     22 C           3.4870   -1.0678   -1.3746 C.ar    1  UNL1        0.1381
     23 N           4.8269   -1.2525   -1.4501 N.ar    1  UNL1       -0.2353
     24 C           5.3722   -0.7332   -0.3465 C.ar    1  UNL1        0.0588
     25 C           4.3587   -0.2076    0.4471 C.ar    1  UNL1        0.1280
     26 C           4.5510    0.4412    1.7244 C.2     1  UNL1        0.2599
     27 N           5.8456    0.5925    2.2796 N.am    1  UNL1       -0.3241
     28 O           3.5808    0.8920    2.3852 O.2     1  UNL1       -0.2687
     29 N           3.2094   -0.4289   -0.2128 N.ar    1  UNL1       -0.2949
     30 C           1.9478   -0.1150    0.1254 C.ar    1  UNL1        0.0211
     31 C          -3.9498   -0.7534    0.5831 C.3     1  UNL1        0.0728
     32 H          -6.6602   -1.9077   -0.5278 H       1  UNL1        0.0323
     33 H          -7.2565   -2.7930    0.9563 H       1  UNL1        0.0323
     34 H          -6.3370   -1.2467    1.0895 H       1  UNL1        0.0323
     35 H          -2.7937   -3.9717    0.3797 H       1  UNL1        0.0482
     36 H          -2.2963   -2.9769    1.7615 H       1  UNL1        0.0482
     37 H          -0.6061   -2.7794    0.1705 H       1  UNL1        0.0508
     38 H          -1.6940   -2.6073   -1.2282 H       1  UNL1        0.0508
     39 H          -0.4311    2.9883    1.8555 H       1  UNL1        0.0625
     40 H           0.8370    5.0344    1.7141 H       1  UNL1        0.0646
     41 H           1.5799    4.3181   -2.3952 H       1  UNL1        0.0646
     42 H           0.3125    2.2642   -2.2715 H       1  UNL1        0.0625
     43 H           0.3507   -1.3357   -2.5337 H       1  UNL1        0.0626
     44 H           2.7227   -1.9172   -3.1532 H       1  UNL1        0.0654
     45 H           6.4171   -0.7008   -0.0687 H       1  UNL1        0.0853
     46 H           6.6746    0.5721    1.6756 H       1  UNL1        0.1453
     47 H           5.9989    0.7288    3.3141 H       1  UNL1        0.1453
     48 H           1.7210    0.4007    1.0628 H       1  UNL1        0.0820
     49 H          -4.6656   -0.4931   -0.2430 H       1  UNL1        0.0544
     50 H          -4.3380   -0.3146    1.5254 H       1  UNL1        0.0544
@<TRIPOS>BOND
     1     1     2    1
     2     2     3    2
     3     2     4   am
     4     4     5    1
     5     5     6    1
     6     6     7    1
     7     7     8   ar
     8     8     9   ar
     9     9    10   ar
    10    10    11    1
    11    11    12   ar
    12    12    13   ar
    13    13    14   ar
    14    14    15    1
    15    14    16   ar
    16    16    17   ar
    17    10    18   ar
    18    18    19    1
    19    19    20   ar
    20    20    21   ar
    21    21    22   ar
    22    22    23   ar
    23    23    24   ar
    24    24    25   ar
    25    25    26    1
    26    26    27   am
    27    26    28    2
    28    25    29   ar
    29    29    30   ar
    30     8    31    1
    31    31     4    1
    32    18     7   ar
    33    30    19   ar
    34    17    11   ar
    35    29    22   ar
    36     1    32    1
    37     1    33    1
    38     1    34    1
    39     5    35    1
    40     5    36    1
    41     6    37    1
    42     6    38    1
    43    12    39    1
    44    13    40    1
    45    16    41    1
    46    17    42    1
    47    20    43    1
    48    21    44    1
    49    24    45    1
    50    27    46    1
    51    27    47    1
    52    30    48    1
    53    31    49    1
    54    31    50    1
