
     RDKit          3D

 50 54  0  0  0  0  0  0  0  0999 V2000
   -6.4329   -2.2153    0.5225 C   0  0  0  0  0  0  0  0  0  0  0  0
   -5.1283   -2.8929    0.6057 C   0  0  0  0  0  0  0  0  0  0  0  0
   -5.1076   -4.1449    0.6506 O   0  0  0  0  0  0  0  0  0  0  0  0
   -3.8936   -2.1974    0.6374 N   0  0  0  0  0  0  0  0  0  0  0  0
   -2.6522   -2.9171    0.7198 C   0  0  0  0  0  0  0  0  0  0  0  0
   -1.5815   -2.3242   -0.1699 C   0  0  0  0  0  0  0  0  0  0  0  0
   -1.5500   -0.8856   -0.0748 N   0  0  0  0  0  0  0  0  0  0  0  0
   -2.6230   -0.1755    0.2663 C   0  0  0  0  0  0  0  0  0  0  0  0
   -2.2630    1.1253    0.2626 N   0  0  0  0  0  0  0  0  0  0  0  0
   -0.9463    1.2056   -0.0875 C   0  0  0  0  0  0  0  0  0  0  0  0
   -0.1737    2.4356   -0.2081 C   0  0  0  0  0  0  0  0  0  0  0  0
   -0.0029    3.2448    0.8948 C   0  0  0  0  0  0  0  0  0  0  0  0
    0.7222    4.4257    0.8365 C   0  0  0  0  0  0  0  0  0  0  0  0
    1.2923    4.8139   -0.3448 C   0  0  0  0  0  0  0  0  0  0  0  0
    2.0017    5.9830   -0.3734 F   0  0  0  0  0  0  0  0  0  0  0  0
    1.1409    4.0308   -1.4606 C   0  0  0  0  0  0  0  0  0  0  0  0
    0.4118    2.8513   -1.3855 C   0  0  0  0  0  0  0  0  0  0  0  0
   -0.4879   -0.0765   -0.3037 C   0  0  0  0  0  0  0  0  0  0  0  0
    0.8720   -0.4293   -0.6964 C   0  0  0  0  0  0  0  0  0  0  0  0
    1.1727   -1.0796   -1.8752 C   0  0  0  0  0  0  0  0  0  0  0  0
    2.4643   -1.4075   -2.2341 C   0  0  0  0  0  0  0  0  0  0  0  0
    3.4870   -1.0678   -1.3746 C   0  0  0  0  0  0  0  0  0  0  0  0
    4.8269   -1.2525   -1.4501 N   0  0  0  0  0  0  0  0  0  0  0  0
    5.3722   -0.7332   -0.3465 C   0  0  0  0  0  0  0  0  0  0  0  0
    4.3587   -0.2076    0.4471 C   0  0  0  0  0  0  0  0  0  0  0  0
    4.5510    0.4412    1.7244 C   0  0  0  0  0  0  0  0  0  0  0  0
    5.8456    0.5925    2.2796 N   0  0  0  0  0  0  0  0  0  0  0  0
    3.5808    0.8920    2.3852 O   0  0  0  0  0  0  0  0  0  0  0  0
    3.2094   -0.4289   -0.2128 N   0  0  0  0  0  0  0  0  0  0  0  0
    1.9478   -0.1150    0.1254 C   0  0  0  0  0  0  0  0  0  0  0  0
   -3.9498   -0.7534    0.5831 C   0  0  0  0  0  0  0  0  0  0  0  0
   -6.6602   -1.9077   -0.5278 H   0  0  0  0  0  0  0  0  0  0  0  0
   -7.2565   -2.7930    0.9563 H   0  0  0  0  0  0  0  0  0  0  0  0
   -6.3370   -1.2467    1.0895 H   0  0  0  0  0  0  0  0  0  0  0  0
   -2.7937   -3.9717    0.3797 H   0  0  0  0  0  0  0  0  0  0  0  0
   -2.2963   -2.9769    1.7615 H   0  0  0  0  0  0  0  0  0  0  0  0
   -0.6061   -2.7794    0.1705 H   0  0  0  0  0  0  0  0  0  0  0  0
   -1.6940   -2.6073   -1.2282 H   0  0  0  0  0  0  0  0  0  0  0  0
   -0.4311    2.9883    1.8555 H   0  0  0  0  0  0  0  0  0  0  0  0
    0.8370    5.0344    1.7141 H   0  0  0  0  0  0  0  0  0  0  0  0
    1.5799    4.3181   -2.3952 H   0  0  0  0  0  0  0  0  0  0  0  0
    0.3125    2.2642   -2.2715 H   0  0  0  0  0  0  0  0  0  0  0  0
    0.3507   -1.3357   -2.5337 H   0  0  0  0  0  0  0  0  0  0  0  0
    2.7227   -1.9172   -3.1532 H   0  0  0  0  0  0  0  0  0  0  0  0
    6.4171   -0.7008   -0.0687 H   0  0  0  0  0  0  0  0  0  0  0  0
    6.6746    0.5721    1.6756 H   0  0  0  0  0  0  0  0  0  0  0  0
    5.9989    0.7288    3.3141 H   0  0  0  0  0  0  0  0  0  0  0  0
    1.7210    0.4007    1.0628 H   0  0  0  0  0  0  0  0  0  0  0  0
   -4.6656   -0.4931   -0.2430 H   0  0  0  0  0  0  0  0  0  0  0  0
   -4.3380   -0.3146    1.5254 H   0  0  0  0  0  0  0  0  0  0  0  0
  1  2  1  0
  2  3  2  0
  2  4  1  0
  4  5  1  0
  5  6  1  0
  6  7  1  0
  7  8  1  0
  8  9  2  0
  9 10  1  0
 10 11  1  0
 11 12  2  0
 12 13  1  0
 13 14  2  0
 14 15  1  0
 14 16  1  0
 16 17  2  0
 10 18  2  0
 18 19  1  0
 19 20  1  0
 20 21  2  0
 21 22  1  0
 22 23  2  0
 23 24  1  0
 24 25  2  0
 25 26  1  0
 26 27  1  0
 26 28  2  0
 25 29  1  0
 29 30  1  0
  8 31  1  0
 31  4  1  0
 18  7  1  0
 30 19  2  0
 17 11  1  0
 29 22  1  0
  1 32  1  0
  1 33  1  0
  1 34  1  0
  5 35  1  0
  5 36  1  0
  6 37  1  0
  6 38  1  0
 12 39  1  0
 13 40  1  0
 16 41  1  0
 17 42  1  0
 20 43  1  0
 21 44  1  0
 24 45  1  0
 27 46  1  0
 27 47  1  0
 30 48  1  0
 31 49  1  0
 31 50  1  0
M  END
$$$$
