@<TRIPOS>MOLECULE
*****
 73 79 0 0 0
SMALL
GASTEIGER

@<TRIPOS>ATOM
      1 C           2.9595    7.5369    1.1077 C.3     1  UNL1        0.0804
      2 O           2.2573    6.3448    1.2959 O.3     1  UNL1       -0.4795
      3 C           2.1167    5.4454    0.2688 C.ar    1  UNL1        0.2191
      4 C           1.4355    4.2503    0.3899 C.ar    1  UNL1        0.0404
      5 C           1.3056    3.3535   -0.6649 C.ar    1  UNL1        0.1364
      6 N           0.6088    2.1378   -0.5348 N.am    1  UNL1       -0.2240
      7 C          -0.7967    1.9179   -0.7859 C.2     1  UNL1        0.3219
      8 O          -1.4626    2.6919   -1.4931 O.2     1  UNL1       -0.2512
      9 N          -1.2212    0.7280   -0.1090 N.am    1  UNL1       -0.1920
     10 C          -2.5348    0.1534   -0.0993 C.ar    1  UNL1        0.0455
     11 C          -2.7945   -1.0253    0.5844 C.ar    1  UNL1       -0.0392
     12 C          -4.0746   -1.5996    0.6056 C.ar    1  UNL1       -0.0523
     13 C          -5.1163   -0.9962   -0.0621 C.ar    1  UNL1       -0.0177
     14 C          -6.4336   -1.6222   -0.0189 C.ar    1  UNL1       -0.0158
     15 C          -7.2879   -1.4862   -1.0911 C.ar    1  UNL1       -0.0519
     16 C          -8.5523   -2.0845   -1.0560 C.ar    1  UNL1       -0.0337
     17 C          -8.9470   -2.8099    0.0477 C.ar    1  UNL1        0.0888
     18 N         -10.0765   -3.4684    0.3304 N.ar    1  UNL1       -0.2359
     19 C          -9.9753   -4.0318    1.5674 C.ar    1  UNL1        0.0944
     20 N          -8.7602   -3.7027    2.0322 N.ar    1  UNL1       -0.3444
     21 C          -8.0914   -2.9547    1.1388 C.ar    1  UNL1        0.0666
     22 C          -6.8513   -2.3557    1.0796 C.ar    1  UNL1       -0.0285
     23 C          -4.8572    0.1740   -0.7405 C.ar    1  UNL1       -0.0523
     24 C          -3.5768    0.7464   -0.7604 C.ar    1  UNL1       -0.0392
     25 C          -0.0601    0.2367    0.5517 C.2     1  UNL1        0.2516
     26 O          -0.0249   -0.5523    1.4978 O.2     1  UNL1       -0.2724
     27 C           1.1332    0.8695   -0.1289 C.3     1  UNL1        0.1240
     28 C           1.4226   -0.0489   -1.3224 C.3     1  UNL1       -0.0095
     29 C           2.8852    0.1345   -1.6661 C.3     1  UNL1        0.0017
     30 N           3.7000   -0.4620   -0.6333 N.3     1  UNL1       -0.2965
     31 C           4.0110   -1.8251   -0.9810 C.3     1  UNL1        0.0415
     32 C           4.8523   -2.5011    0.0241 C.ar    1  UNL1        0.0581
     33 N           4.3171   -3.3957    0.8726 N.ar    1  UNL1       -0.2583
     34 C           5.0771   -4.0276    1.8030 C.ar    1  UNL1        0.0279
     35 C           6.4290   -3.7953    1.9354 C.ar    1  UNL1       -0.0433
     36 C           7.0006   -2.8765    1.0704 C.ar    1  UNL1       -0.0557
     37 C           6.2020   -2.2495    0.1344 C.ar    1  UNL1       -0.0279
     38 C           6.8566   -1.2759   -0.7680 C.3     1  UNL1       -0.0380
     39 C           3.1243   -0.3373    0.6749 C.3     1  UNL1        0.0017
     40 C           2.2924    0.9372    0.8140 C.3     1  UNL1       -0.0095
     41 N           1.8984    3.7348   -1.8313 N.ar    1  UNL1       -0.2200
     42 C           2.5620    4.8794   -1.9806 C.ar    1  UNL1        0.1219
     43 N           2.6556    5.7037   -0.9337 N.ar    1  UNL1       -0.2013
     44 H           2.4228    8.2690    0.4467 H       1  UNL1        0.0660
     45 H           3.1478    8.0385    2.0931 H       1  UNL1        0.0660
     46 H           3.9580    7.3885    0.6392 H       1  UNL1        0.0660
     47 H           0.9884    4.0010    1.3312 H       1  UNL1        0.0705
     48 H          -2.0143   -1.5443    1.1242 H       1  UNL1        0.0636
     49 H          -4.2754   -2.5169    1.1384 H       1  UNL1        0.0624
     50 H          -6.9563   -0.9137   -1.9438 H       1  UNL1        0.0624
     51 H          -9.2166   -1.9790   -1.8893 H       1  UNL1        0.0640
     52 H         -10.7475   -4.6215    2.0431 H       1  UNL1        0.1027
     53 H          -8.3900   -3.9904    2.9596 H       1  UNL1        0.1668
     54 H          -6.1747   -2.4562    1.9142 H       1  UNL1        0.0645
     55 H          -5.6707    0.6559   -1.2694 H       1  UNL1        0.0624
     56 H          -3.4231    1.6628   -1.3042 H       1  UNL1        0.0636
     57 H           0.7539    0.2767   -2.1246 H       1  UNL1        0.0303
     58 H           1.2709   -1.0957   -0.9993 H       1  UNL1        0.0303
     59 H           3.0926    1.2068   -1.8041 H       1  UNL1        0.0427
     60 H           3.0490   -0.4053   -2.6229 H       1  UNL1        0.0427
     61 H           4.5230   -1.7996   -1.9798 H       1  UNL1        0.0491
     62 H           3.0526   -2.3498   -1.1584 H       1  UNL1        0.0491
     63 H           4.6047   -4.7371    2.4618 H       1  UNL1        0.0829
     64 H           7.0535   -4.2913    2.6739 H       1  UNL1        0.0633
     65 H           8.0573   -2.6884    1.1669 H       1  UNL1        0.0621
     66 H           7.4862   -1.7522   -1.5438 H       1  UNL1        0.0278
     67 H           6.0865   -0.6825   -1.2967 H       1  UNL1        0.0278
     68 H           7.4909   -0.6254   -0.1297 H       1  UNL1        0.0278
     69 H           3.9024   -0.2920    1.4795 H       1  UNL1        0.0427
     70 H           2.4763   -1.1842    0.9200 H       1  UNL1        0.0427
     71 H           2.9174    1.8341    0.6805 H       1  UNL1        0.0303
     72 H           1.8913    0.9083    1.8576 H       1  UNL1        0.0303
     73 H           3.0354    5.1922   -2.9004 H       1  UNL1        0.1049
@<TRIPOS>BOND
     1     1     2    1
     2     2     3    1
     3     3     4   ar
     4     4     5   ar
     5     5     6    1
     6     6     7   am
     7     7     8    2
     8     7     9   am
     9     9    10    1
    10    10    11   ar
    11    11    12   ar
    12    12    13   ar
    13    13    14    1
    14    14    15   ar
    15    15    16   ar
    16    16    17   ar
    17    17    18   ar
    18    18    19   ar
    19    19    20   ar
    20    20    21   ar
    21    21    22   ar
    22    13    23   ar
    23    23    24   ar
    24     9    25   am
    25    25    26    2
    26    25    27    1
    27    27    28    1
    28    28    29    1
    29    29    30    1
    30    30    31    1
    31    31    32    1
    32    32    33   ar
    33    33    34   ar
    34    34    35   ar
    35    35    36   ar
    36    36    37   ar
    37    37    38    1
    38    30    39    1
    39    39    40    1
    40     5    41   ar
    41    41    42   ar
    42    42    43   ar
    43    43     3   ar
    44    27     6    1
    45    37    32   ar
    46    24    10   ar
    47    40    27    1
    48    22    14   ar
    49    21    17   ar
    50     1    44    1
    51     1    45    1
    52     1    46    1
    53     4    47    1
    54    11    48    1
    55    12    49    1
    56    15    50    1
    57    16    51    1
    58    19    52    1
    59    20    53    1
    60    22    54    1
    61    23    55    1
    62    24    56    1
    63    28    57    1
    64    28    58    1
    65    29    59    1
    66    29    60    1
    67    31    61    1
    68    31    62    1
    69    34    63    1
    70    35    64    1
    71    36    65    1
    72    38    66    1
    73    38    67    1
    74    38    68    1
    75    39    69    1
    76    39    70    1
    77    40    71    1
    78    40    72    1
    79    42    73    1
