
     RDKit          3D

 73 79  0  0  0  0  0  0  0  0999 V2000
    2.9595    7.5369    1.1077 C   0  0  0  0  0  0  0  0  0  0  0  0
    2.2573    6.3448    1.2959 O   0  0  0  0  0  0  0  0  0  0  0  0
    2.1167    5.4454    0.2688 C   0  0  0  0  0  0  0  0  0  0  0  0
    1.4355    4.2503    0.3899 C   0  0  0  0  0  0  0  0  0  0  0  0
    1.3056    3.3535   -0.6649 C   0  0  0  0  0  0  0  0  0  0  0  0
    0.6088    2.1378   -0.5348 N   0  0  0  0  0  0  0  0  0  0  0  0
   -0.7967    1.9179   -0.7859 C   0  0  0  0  0  0  0  0  0  0  0  0
   -1.4626    2.6919   -1.4931 O   0  0  0  0  0  0  0  0  0  0  0  0
   -1.2212    0.7280   -0.1090 N   0  0  0  0  0  0  0  0  0  0  0  0
   -2.5348    0.1534   -0.0993 C   0  0  0  0  0  0  0  0  0  0  0  0
   -2.7945   -1.0253    0.5844 C   0  0  0  0  0  0  0  0  0  0  0  0
   -4.0746   -1.5996    0.6056 C   0  0  0  0  0  0  0  0  0  0  0  0
   -5.1163   -0.9962   -0.0621 C   0  0  0  0  0  0  0  0  0  0  0  0
   -6.4336   -1.6222   -0.0189 C   0  0  0  0  0  0  0  0  0  0  0  0
   -7.2879   -1.4862   -1.0911 C   0  0  0  0  0  0  0  0  0  0  0  0
   -8.5523   -2.0845   -1.0560 C   0  0  0  0  0  0  0  0  0  0  0  0
   -8.9470   -2.8099    0.0477 C   0  0  0  0  0  0  0  0  0  0  0  0
  -10.0765   -3.4684    0.3304 N   0  0  0  0  0  0  0  0  0  0  0  0
   -9.9753   -4.0318    1.5674 C   0  0  0  0  0  0  0  0  0  0  0  0
   -8.7602   -3.7027    2.0322 N   0  0  0  0  0  0  0  0  0  0  0  0
   -8.0914   -2.9547    1.1388 C   0  0  0  0  0  0  0  0  0  0  0  0
   -6.8513   -2.3557    1.0796 C   0  0  0  0  0  0  0  0  0  0  0  0
   -4.8572    0.1740   -0.7405 C   0  0  0  0  0  0  0  0  0  0  0  0
   -3.5768    0.7464   -0.7604 C   0  0  0  0  0  0  0  0  0  0  0  0
   -0.0601    0.2367    0.5517 C   0  0  0  0  0  0  0  0  0  0  0  0
   -0.0249   -0.5523    1.4978 O   0  0  0  0  0  0  0  0  0  0  0  0
    1.1332    0.8695   -0.1289 C   0  0  0  0  0  0  0  0  0  0  0  0
    1.4226   -0.0489   -1.3224 C   0  0  0  0  0  0  0  0  0  0  0  0
    2.8852    0.1345   -1.6661 C   0  0  0  0  0  0  0  0  0  0  0  0
    3.7000   -0.4620   -0.6333 N   0  0  0  0  0  0  0  0  0  0  0  0
    4.0110   -1.8251   -0.9810 C   0  0  0  0  0  0  0  0  0  0  0  0
    4.8523   -2.5011    0.0241 C   0  0  0  0  0  0  0  0  0  0  0  0
    4.3171   -3.3957    0.8726 N   0  0  0  0  0  0  0  0  0  0  0  0
    5.0771   -4.0276    1.8030 C   0  0  0  0  0  0  0  0  0  0  0  0
    6.4290   -3.7953    1.9354 C   0  0  0  0  0  0  0  0  0  0  0  0
    7.0006   -2.8765    1.0704 C   0  0  0  0  0  0  0  0  0  0  0  0
    6.2020   -2.2495    0.1344 C   0  0  0  0  0  0  0  0  0  0  0  0
    6.8566   -1.2759   -0.7680 C   0  0  0  0  0  0  0  0  0  0  0  0
    3.1243   -0.3373    0.6749 C   0  0  0  0  0  0  0  0  0  0  0  0
    2.2924    0.9372    0.8140 C   0  0  0  0  0  0  0  0  0  0  0  0
    1.8984    3.7348   -1.8313 N   0  0  0  0  0  0  0  0  0  0  0  0
    2.5620    4.8794   -1.9806 C   0  0  0  0  0  0  0  0  0  0  0  0
    2.6556    5.7037   -0.9337 N   0  0  0  0  0  0  0  0  0  0  0  0
    2.4228    8.2690    0.4467 H   0  0  0  0  0  0  0  0  0  0  0  0
    3.1478    8.0385    2.0931 H   0  0  0  0  0  0  0  0  0  0  0  0
    3.9580    7.3885    0.6392 H   0  0  0  0  0  0  0  0  0  0  0  0
    0.9884    4.0010    1.3312 H   0  0  0  0  0  0  0  0  0  0  0  0
   -2.0143   -1.5443    1.1242 H   0  0  0  0  0  0  0  0  0  0  0  0
   -4.2754   -2.5169    1.1384 H   0  0  0  0  0  0  0  0  0  0  0  0
   -6.9563   -0.9137   -1.9438 H   0  0  0  0  0  0  0  0  0  0  0  0
   -9.2166   -1.9790   -1.8893 H   0  0  0  0  0  0  0  0  0  0  0  0
  -10.7475   -4.6215    2.0431 H   0  0  0  0  0  0  0  0  0  0  0  0
   -8.3900   -3.9904    2.9596 H   0  0  0  0  0  0  0  0  0  0  0  0
   -6.1747   -2.4562    1.9142 H   0  0  0  0  0  0  0  0  0  0  0  0
   -5.6707    0.6559   -1.2694 H   0  0  0  0  0  0  0  0  0  0  0  0
   -3.4231    1.6628   -1.3042 H   0  0  0  0  0  0  0  0  0  0  0  0
    0.7539    0.2767   -2.1246 H   0  0  0  0  0  0  0  0  0  0  0  0
    1.2709   -1.0957   -0.9993 H   0  0  0  0  0  0  0  0  0  0  0  0
    3.0926    1.2068   -1.8041 H   0  0  0  0  0  0  0  0  0  0  0  0
    3.0490   -0.4053   -2.6229 H   0  0  0  0  0  0  0  0  0  0  0  0
    4.5230   -1.7996   -1.9798 H   0  0  0  0  0  0  0  0  0  0  0  0
    3.0526   -2.3498   -1.1584 H   0  0  0  0  0  0  0  0  0  0  0  0
    4.6047   -4.7371    2.4618 H   0  0  0  0  0  0  0  0  0  0  0  0
    7.0535   -4.2913    2.6739 H   0  0  0  0  0  0  0  0  0  0  0  0
    8.0573   -2.6884    1.1669 H   0  0  0  0  0  0  0  0  0  0  0  0
    7.4862   -1.7522   -1.5438 H   0  0  0  0  0  0  0  0  0  0  0  0
    6.0865   -0.6825   -1.2967 H   0  0  0  0  0  0  0  0  0  0  0  0
    7.4909   -0.6254   -0.1297 H   0  0  0  0  0  0  0  0  0  0  0  0
    3.9024   -0.2920    1.4795 H   0  0  0  0  0  0  0  0  0  0  0  0
    2.4763   -1.1842    0.9200 H   0  0  0  0  0  0  0  0  0  0  0  0
    2.9174    1.8341    0.6805 H   0  0  0  0  0  0  0  0  0  0  0  0
    1.8913    0.9083    1.8576 H   0  0  0  0  0  0  0  0  0  0  0  0
    3.0354    5.1922   -2.9004 H   0  0  0  0  0  0  0  0  0  0  0  0
  1  2  1  0
  2  3  1  0
  3  4  2  0
  4  5  1  0
  5  6  1  0
  6  7  1  0
  7  8  2  0
  7  9  1  0
  9 10  1  0
 10 11  2  0
 11 12  1  0
 12 13  2  0
 13 14  1  0
 14 15  2  0
 15 16  1  0
 16 17  2  0
 17 18  1  0
 18 19  2  0
 19 20  1  0
 20 21  1  0
 21 22  2  0
 13 23  1  0
 23 24  2  0
  9 25  1  0
 25 26  2  0
 25 27  1  0
 27 28  1  0
 28 29  1  0
 29 30  1  0
 30 31  1  0
 31 32  1  0
 32 33  2  0
 33 34  1  0
 34 35  2  0
 35 36  1  0
 36 37  2  0
 37 38  1  0
 30 39  1  0
 39 40  1  0
  5 41  2  0
 41 42  1  0
 42 43  2  0
 43  3  1  0
 27  6  1  0
 37 32  1  0
 24 10  1  0
 40 27  1  0
 22 14  1  0
 21 17  1  0
  1 44  1  0
  1 45  1  0
  1 46  1  0
  4 47  1  0
 11 48  1  0
 12 49  1  0
 15 50  1  0
 16 51  1  0
 19 52  1  0
 20 53  1  0
 22 54  1  0
 23 55  1  0
 24 56  1  0
 28 57  1  0
 28 58  1  0
 29 59  1  0
 29 60  1  0
 31 61  1  0
 31 62  1  0
 34 63  1  0
 35 64  1  0
 36 65  1  0
 38 66  1  0
 38 67  1  0
 38 68  1  0
 39 69  1  0
 39 70  1  0
 40 71  1  0
 40 72  1  0
 42 73  1  0
M  END
$$$$
