@<TRIPOS>MOLECULE
*****
 47 49 0 0 0
SMALL
GASTEIGER

@<TRIPOS>ATOM
      1 O          -6.9286    0.8449   -1.4029 O.2     1  UNL1       -0.1744
      2 S          -6.4182   -0.1231   -0.3955 S.O2    1  UNL1       -0.0310
      3 O          -7.5046   -1.0741   -0.0236 O.2     1  UNL1       -0.1744
      4 C          -4.9656   -0.9958   -1.0032 C.3     1  UNL1        0.0660
      5 C          -4.1812   -1.3475    0.2687 C.3     1  UNL1       -0.0307
      6 C          -3.4936   -0.0845    0.7916 C.3     1  UNL1       -0.0367
      7 C          -2.1989    0.0371    0.0387 C.3     1  UNL1       -0.0345
      8 C          -1.3799    1.2132    0.4088 C.3     1  UNL1        0.0094
      9 N          -0.1498    1.2683   -0.3356 N.pl3   1  UNL1       -0.3426
     10 C           0.9697    0.4432   -0.1468 C.ar    1  UNL1        0.0485
     11 C           1.0019   -0.5006    0.8454 C.ar    1  UNL1       -0.0022
     12 C           2.1227   -1.3129    1.0583 C.ar    1  UNL1        0.1517
     13 F           2.1520   -2.2452    2.0387 F       1  UNL1       -0.2034
     14 C           3.2121   -1.1204    0.2143 C.ar    1  UNL1        0.1450
     15 S           4.5965   -2.1457    0.4752 S.O2    1  UNL1        0.0766
     16 O           4.2591   -3.5866    0.3635 O.2     1  UNL1       -0.1498
     17 O           5.0828   -1.8855    1.8829 O.2     1  UNL1       -0.1498
     18 N           5.8386   -1.6857   -0.6069 N.pl3   1  UNL1       -0.1937
     19 C           6.4478   -0.3548   -0.5781 C.ar    1  UNL1        0.1774
     20 N           7.2254    0.3271   -1.0676 N.ar    1  UNL1       -0.2321
     21 C           7.5923    1.5549   -0.7948 C.ar    1  UNL1        0.0369
     22 C           6.9551    2.1338    0.2387 C.ar    1  UNL1       -0.0030
     23 S           5.8061    0.8258    0.7950 S.2     1  UNL1       -0.0594
     24 C           3.2121   -0.1883   -0.7838 C.ar    1  UNL1       -0.0121
     25 C           2.0739    0.5869   -0.9470 C.ar    1  UNL1        0.0638
     26 CL          2.0858    1.7853   -2.2364 Cl      1  UNL1       -0.0816
     27 C          -4.3618    1.1208    0.7053 C.3     1  UNL1       -0.0307
     28 C          -5.8011    0.7600    1.0471 C.3     1  UNL1        0.0660
     29 H          -4.3746   -0.2512   -1.5476 H       1  UNL1        0.0500
     30 H          -5.2283   -1.8837   -1.5709 H       1  UNL1        0.0500
     31 H          -3.4413   -2.0980   -0.0225 H       1  UNL1        0.0283
     32 H          -4.9304   -1.6959    1.0027 H       1  UNL1        0.0283
     33 H          -3.2769   -0.2883    1.8599 H       1  UNL1        0.0302
     34 H          -1.6230   -0.8903    0.1363 H       1  UNL1        0.0283
     35 H          -2.4220    0.1022   -1.0741 H       1  UNL1        0.0283
     36 H          -1.8974    2.1851    0.3073 H       1  UNL1        0.0461
     37 H          -1.1209    1.1601    1.5107 H       1  UNL1        0.0461
     38 H          -0.0948    2.0070   -1.1002 H       1  UNL1        0.1461
     39 H           0.1921   -0.6829    1.5385 H       1  UNL1        0.0666
     40 H           6.2295   -2.3065   -1.3346 H       1  UNL1        0.1758
     41 H           8.3748    2.0732   -1.3807 H       1  UNL1        0.0835
     42 H           7.0169    3.1559    0.7379 H       1  UNL1        0.0710
     43 H           4.0769   -0.0816   -1.4176 H       1  UNL1        0.0653
     44 H          -4.4036    1.5608   -0.3193 H       1  UNL1        0.0283
     45 H          -4.0489    1.8707    1.4635 H       1  UNL1        0.0283
     46 H          -5.8609    0.1332    1.9478 H       1  UNL1        0.0500
     47 H          -6.4177    1.6791    1.1143 H       1  UNL1        0.0500
@<TRIPOS>BOND
     1     1     2    2
     2     2     3    2
     3     2     4    1
     4     4     5    1
     5     5     6    1
     6     6     7    1
     7     7     8    1
     8     8     9    1
     9     9    10    1
    10    10    11   ar
    11    11    12   ar
    12    12    13    1
    13    12    14   ar
    14    14    15    1
    15    15    16    2
    16    15    17    2
    17    15    18    1
    18    18    19    1
    19    19    20   ar
    20    20    21   ar
    21    21    22   ar
    22    22    23   ar
    23    14    24   ar
    24    24    25   ar
    25    25    26    1
    26     6    27    1
    27    27    28    1
    28    28     2    1
    29    25    10   ar
    30    23    19   ar
    31     4    29    1
    32     4    30    1
    33     5    31    1
    34     5    32    1
    35     6    33    1
    36     7    34    1
    37     7    35    1
    38     8    36    1
    39     8    37    1
    40     9    38    1
    41    11    39    1
    42    18    40    1
    43    21    41    1
    44    22    42    1
    45    24    43    1
    46    27    44    1
    47    27    45    1
    48    28    46    1
    49    28    47    1
