
     RDKit          3D

 47 49  0  0  0  0  0  0  0  0999 V2000
   -6.9286    0.8449   -1.4029 O   0  0  0  0  0  0  0  0  0  0  0  0
   -6.4182   -0.1231   -0.3955 S   0  0  0  0  0  6  0  0  0  0  0  0
   -7.5046   -1.0741   -0.0236 O   0  0  0  0  0  0  0  0  0  0  0  0
   -4.9656   -0.9958   -1.0032 C   0  0  0  0  0  0  0  0  0  0  0  0
   -4.1812   -1.3475    0.2687 C   0  0  0  0  0  0  0  0  0  0  0  0
   -3.4936   -0.0845    0.7916 C   0  0  0  0  0  0  0  0  0  0  0  0
   -2.1989    0.0371    0.0387 C   0  0  0  0  0  0  0  0  0  0  0  0
   -1.3799    1.2132    0.4088 C   0  0  0  0  0  0  0  0  0  0  0  0
   -0.1498    1.2683   -0.3356 N   0  0  0  0  0  0  0  0  0  0  0  0
    0.9697    0.4432   -0.1468 C   0  0  0  0  0  0  0  0  0  0  0  0
    1.0019   -0.5006    0.8454 C   0  0  0  0  0  0  0  0  0  0  0  0
    2.1227   -1.3129    1.0583 C   0  0  0  0  0  0  0  0  0  0  0  0
    2.1520   -2.2452    2.0387 F   0  0  0  0  0  0  0  0  0  0  0  0
    3.2121   -1.1204    0.2143 C   0  0  0  0  0  0  0  0  0  0  0  0
    4.5965   -2.1457    0.4752 S   0  0  0  0  0  6  0  0  0  0  0  0
    4.2591   -3.5866    0.3635 O   0  0  0  0  0  0  0  0  0  0  0  0
    5.0828   -1.8855    1.8829 O   0  0  0  0  0  0  0  0  0  0  0  0
    5.8386   -1.6857   -0.6069 N   0  0  0  0  0  0  0  0  0  0  0  0
    6.4478   -0.3548   -0.5781 C   0  0  0  0  0  0  0  0  0  0  0  0
    7.2254    0.3271   -1.0676 N   0  0  0  0  0  0  0  0  0  0  0  0
    7.5923    1.5549   -0.7948 C   0  0  0  0  0  0  0  0  0  0  0  0
    6.9551    2.1338    0.2387 C   0  0  0  0  0  0  0  0  0  0  0  0
    5.8061    0.8258    0.7950 S   0  0  0  0  0  0  0  0  0  0  0  0
    3.2121   -0.1883   -0.7838 C   0  0  0  0  0  0  0  0  0  0  0  0
    2.0739    0.5869   -0.9470 C   0  0  0  0  0  0  0  0  0  0  0  0
    2.0858    1.7853   -2.2364 Cl  0  0  0  0  0  0  0  0  0  0  0  0
   -4.3618    1.1208    0.7053 C   0  0  0  0  0  0  0  0  0  0  0  0
   -5.8011    0.7600    1.0471 C   0  0  0  0  0  0  0  0  0  0  0  0
   -4.3746   -0.2512   -1.5476 H   0  0  0  0  0  0  0  0  0  0  0  0
   -5.2283   -1.8837   -1.5709 H   0  0  0  0  0  0  0  0  0  0  0  0
   -3.4413   -2.0980   -0.0225 H   0  0  0  0  0  0  0  0  0  0  0  0
   -4.9304   -1.6959    1.0027 H   0  0  0  0  0  0  0  0  0  0  0  0
   -3.2769   -0.2883    1.8599 H   0  0  0  0  0  0  0  0  0  0  0  0
   -1.6230   -0.8903    0.1363 H   0  0  0  0  0  0  0  0  0  0  0  0
   -2.4220    0.1022   -1.0741 H   0  0  0  0  0  0  0  0  0  0  0  0
   -1.8974    2.1851    0.3073 H   0  0  0  0  0  0  0  0  0  0  0  0
   -1.1209    1.1601    1.5107 H   0  0  0  0  0  0  0  0  0  0  0  0
   -0.0948    2.0070   -1.1002 H   0  0  0  0  0  0  0  0  0  0  0  0
    0.1921   -0.6829    1.5385 H   0  0  0  0  0  0  0  0  0  0  0  0
    6.2295   -2.3065   -1.3346 H   0  0  0  0  0  0  0  0  0  0  0  0
    8.3748    2.0732   -1.3807 H   0  0  0  0  0  0  0  0  0  0  0  0
    7.0169    3.1559    0.7379 H   0  0  0  0  0  0  0  0  0  0  0  0
    4.0769   -0.0816   -1.4176 H   0  0  0  0  0  0  0  0  0  0  0  0
   -4.4036    1.5608   -0.3193 H   0  0  0  0  0  0  0  0  0  0  0  0
   -4.0489    1.8707    1.4635 H   0  0  0  0  0  0  0  0  0  0  0  0
   -5.8609    0.1332    1.9478 H   0  0  0  0  0  0  0  0  0  0  0  0
   -6.4177    1.6791    1.1143 H   0  0  0  0  0  0  0  0  0  0  0  0
  1  2  2  0
  2  3  2  0
  2  4  1  0
  4  5  1  0
  5  6  1  0
  6  7  1  0
  7  8  1  0
  8  9  1  0
  9 10  1  0
 10 11  2  0
 11 12  1  0
 12 13  1  0
 12 14  2  0
 14 15  1  0
 15 16  2  0
 15 17  2  0
 15 18  1  0
 18 19  1  0
 19 20  2  0
 20 21  1  0
 21 22  2  0
 22 23  1  0
 14 24  1  0
 24 25  2  0
 25 26  1  0
  6 27  1  0
 27 28  1  0
 28  2  1  0
 25 10  1  0
 23 19  1  0
  4 29  1  0
  4 30  1  0
  5 31  1  0
  5 32  1  0
  6 33  1  0
  7 34  1  0
  7 35  1  0
  8 36  1  0
  8 37  1  0
  9 38  1  0
 11 39  1  0
 18 40  1  0
 21 41  1  0
 22 42  1  0
 24 43  1  0
 27 44  1  0
 27 45  1  0
 28 46  1  0
 28 47  1  0
M  END
$$$$
