@<TRIPOS>MOLECULE
*****
 47 49 0 0 0
SMALL
GASTEIGER

@<TRIPOS>ATOM
      1 N           7.9583    1.8125    0.0377 N.3     1  UNL1       -0.2035
      2 S           7.6350    0.5785   -1.1206 S.O2    1  UNL1        0.0559
      3 O           8.0977    1.0112   -2.4868 O.2     1  UNL1       -0.1533
      4 O           8.3226   -0.7155   -0.7779 O.2     1  UNL1       -0.1533
      5 C           5.9128    0.2929   -1.1094 C.ar    1  UNL1        0.1050
      6 C           5.3550   -0.6413   -0.2727 C.ar    1  UNL1       -0.0346
      7 C           3.9996   -0.8613   -0.2686 C.ar    1  UNL1       -0.0478
      8 C           3.1215   -0.1778   -1.0836 C.ar    1  UNL1        0.0368
      9 C           3.6905    0.7476   -1.9099 C.ar    1  UNL1       -0.0478
     10 C           5.0495    0.9682   -1.9140 C.ar    1  UNL1       -0.0346
     11 C           1.6787   -0.3602   -1.1306 C.2     1  UNL1        0.2441
     12 O           1.0094    0.3435   -1.9324 O.2     1  UNL1       -0.2702
     13 N           0.8955   -1.2457   -0.3778 N.am    1  UNL1       -0.3110
     14 C          -0.4106   -1.6941   -0.1232 C.3     1  UNL1        0.0161
     15 C          -1.2987   -0.6350    0.4666 C.3     1  UNL1       -0.0103
     16 C          -1.5175    0.5734   -0.3452 C.3     1  UNL1       -0.0594
     17 C          -2.5694   -1.3635    0.8815 C.3     1  UNL1        0.0273
     18 N          -3.5610   -0.5212    1.4616 N.ar    1  UNL1       -0.3463
     19 C          -3.6436   -0.1751    2.7515 C.ar    1  UNL1        0.0057
     20 C          -4.7200    0.6601    2.9532 C.ar    1  UNL1       -0.0364
     21 C          -5.2847    0.7948    1.6894 C.ar    1  UNL1       -0.0002
     22 C          -6.4121    1.5499    1.3938 C.ar    1  UNL1       -0.0526
     23 C          -6.8621    1.5838    0.0932 C.ar    1  UNL1       -0.0611
     24 C          -6.1664    0.8631   -0.8501 C.ar    1  UNL1       -0.0598
     25 C          -5.0478    0.1164   -0.5475 C.ar    1  UNL1       -0.0376
     26 C          -4.5686    0.0633    0.7607 C.ar    1  UNL1        0.0491
     27 H           7.1870    2.5326   -0.0588 H       1  UNL1        0.1442
     28 H           7.9386    1.3653    0.9744 H       1  UNL1        0.1442
     29 H           5.9864   -1.2207    0.4003 H       1  UNL1        0.0637
     30 H           3.6078   -1.6027    0.4035 H       1  UNL1        0.0626
     31 H           3.0724    1.3370   -2.5907 H       1  UNL1        0.0626
     32 H           5.4382    1.7160   -2.5928 H       1  UNL1        0.0637
     33 H           1.6114   -1.7679    0.2355 H       1  UNL1        0.1490
     34 H          -0.9009   -2.1056   -1.0749 H       1  UNL1        0.0465
     35 H          -0.3828   -2.5997    0.5412 H       1  UNL1        0.0465
     36 H          -0.7646   -0.3107    1.4250 H       1  UNL1        0.0330
     37 H          -2.4532    1.0865    0.0465 H       1  UNL1        0.0233
     38 H          -1.6184    0.4002   -1.4217 H       1  UNL1        0.0233
     39 H          -0.6651    1.2940   -0.1505 H       1  UNL1        0.0233
     40 H          -2.2151   -2.1686    1.5797 H       1  UNL1        0.0495
     41 H          -2.9551   -1.8631   -0.0386 H       1  UNL1        0.0495
     42 H          -2.9600   -0.5076    3.5178 H       1  UNL1        0.0809
     43 H          -5.0097    1.0840    3.9064 H       1  UNL1        0.0639
     44 H          -6.9627    2.1136    2.1110 H       1  UNL1        0.0624
     45 H          -7.7178    2.1199   -0.2942 H       1  UNL1        0.0618
     46 H          -6.4310    0.8184   -1.8993 H       1  UNL1        0.0618
     47 H          -4.4691   -0.4666   -1.2590 H       1  UNL1        0.0638
@<TRIPOS>BOND
     1     1     2    1
     2     2     3    2
     3     2     4    2
     4     2     5    1
     5     5     6   ar
     6     6     7   ar
     7     7     8   ar
     8     8     9   ar
     9     9    10   ar
    10     8    11    1
    11    11    12    2
    12    11    13   am
    13    13    14    1
    14    14    15    1
    15    15    16    1
    16    15    17    1
    17    17    18    1
    18    18    19   ar
    19    19    20   ar
    20    20    21   ar
    21    21    22   ar
    22    22    23   ar
    23    23    24   ar
    24    24    25   ar
    25    25    26   ar
    26    10     5   ar
    27    26    18   ar
    28    26    21   ar
    29     1    27    1
    30     1    28    1
    31     6    29    1
    32     7    30    1
    33     9    31    1
    34    10    32    1
    35    13    33    1
    36    14    34    1
    37    14    35    1
    38    15    36    1
    39    16    37    1
    40    16    38    1
    41    16    39    1
    42    17    40    1
    43    17    41    1
    44    19    42    1
    45    20    43    1
    46    22    44    1
    47    23    45    1
    48    24    46    1
    49    25    47    1
