
     RDKit          3D

 90 94  0  0  0  0  0  0  0  0999 V2000
   -7.0671    4.8355    0.0124 C   0  0  0  0  0  0  0  0  0  0  0  0
   -6.2211    4.2742   -0.9594 O   0  0  0  0  0  0  0  0  0  0  0  0
   -4.8665    4.1389   -0.7498 C   0  0  0  0  0  0  0  0  0  0  0  0
   -4.2224    4.5259    0.3922 C   0  0  0  0  0  0  0  0  0  0  0  0
   -2.8640    4.3680    0.5518 C   0  0  0  0  0  0  0  0  0  0  0  0
   -2.0742    3.8053   -0.4427 C   0  0  0  0  0  0  0  0  0  0  0  0
   -0.6309    3.6827   -0.3317 C   0  0  0  0  0  0  0  0  0  0  0  0
   -0.0402    2.6011    0.4632 C   0  0  2  0  0  0  0  0  0  0  0  0
    1.3762    2.5712    0.5001 N   0  0  0  0  0  0  0  0  0  0  0  0
    2.3011    1.5465    0.3193 C   0  0  0  0  0  0  0  0  0  0  0  0
    1.9555    0.3885    0.0540 O   0  0  0  0  0  0  0  0  0  0  0  0
    3.7914    1.7845    0.4371 C   0  0  1  0  0  0  0  0  0  0  0  0
    4.1587    2.6165    1.6124 C   0  0  0  0  0  0  0  0  0  0  0  0
    4.5372    0.5370    0.3432 N   0  0  0  0  0  0  0  0  0  0  0  0
    5.2341    0.1702   -0.8220 C   0  0  0  0  0  0  0  0  0  0  0  0
    5.1339    1.0251   -1.7933 O   0  0  0  0  0  0  0  0  0  0  0  0
    6.0340   -1.0220   -1.0487 C   0  0  0  0  0  0  0  0  0  0  0  0
    6.3008   -1.9954   -0.2182 C   0  0  0  0  0  0  0  0  0  0  0  0
    5.8706   -2.1786    1.2001 C   0  0  0  0  0  0  0  0  0  0  0  0
    7.1676   -2.9960   -0.8894 C   0  0  0  0  0  0  0  0  0  0  0  0
    7.7203   -4.1764   -0.4258 C   0  0  0  0  0  0  0  0  0  0  0  0
    8.5266   -4.9487   -1.2560 C   0  0  0  0  0  0  0  0  0  0  0  0
    8.7723   -4.5360   -2.5387 C   0  0  0  0  0  0  0  0  0  0  0  0
    8.2082   -3.3610   -2.9642 C   0  0  0  0  0  0  0  0  0  0  0  0
    7.3969   -2.5654   -2.1572 C   0  0  0  0  0  0  0  0  0  0  0  0
    6.6957   -1.3021   -2.3783 C   0  0  0  0  0  0  0  0  0  0  0  0
   -0.8030    1.3544    0.4567 C   0  0  0  0  0  0  0  0  0  0  0  0
   -1.8635    1.3644   -0.2541 O   0  0  0  0  0  0  0  0  0  0  0  0
   -0.5087    0.1624    1.1443 N   0  0  0  0  0  0  0  0  0  0  0  0
   -1.3805   -1.0405    1.0146 C   0  0  1  0  0  0  0  0  0  0  0  0
   -2.6852   -0.7546    1.6337 C   0  0  0  0  0  0  0  0  0  0  0  0
   -3.8155   -1.6728    1.6411 C   0  0  0  0  0  0  0  0  0  0  0  0
   -4.9157   -1.0204    2.5148 C   0  0  0  0  0  0  0  0  0  0  0  0
   -5.4331    0.2641    1.9997 C   0  0  0  0  0  0  0  0  0  0  0  0
   -6.0602    0.0621    0.6405 C   0  0  0  0  0  0  0  0  0  0  0  0
   -5.0746   -0.6147   -0.2481 C   0  0  0  0  0  0  0  0  0  0  0  0
   -4.5391   -1.9087    0.3375 C   0  0  0  0  0  0  0  0  0  0  0  0
   -1.2454   -1.5510   -0.3272 C   0  0  0  0  0  0  0  0  0  0  0  0
   -0.8825   -0.7555   -1.2249 O   0  0  0  0  0  0  0  0  0  0  0  0
   -1.4656   -2.9267   -0.8383 C   0  0  1  0  0  0  0  0  0  0  0  0
   -1.7603   -3.9900    0.1880 C   0  0  0  0  0  0  0  0  0  0  0  0
   -1.7856   -3.2338   -2.2035 C   0  0  0  0  0  0  0  0  0  0  0  0
   -0.4470   -3.4160   -1.7825 O   0  0  0  0  0  0  0  0  0  0  0  0
   -2.7387    3.4188   -1.5917 C   0  0  0  0  0  0  0  0  0  0  0  0
   -4.1124    3.5737   -1.7641 C   0  0  0  0  0  0  0  0  0  0  0  0
   -8.0951    4.8709   -0.4096 H   0  0  0  0  0  0  0  0  0  0  0  0
   -6.7494    5.8636    0.2935 H   0  0  0  0  0  0  0  0  0  0  0  0
   -7.1242    4.2256    0.9285 H   0  0  0  0  0  0  0  0  0  0  0  0
   -4.8178    4.9649    1.1755 H   0  0  0  0  0  0  0  0  0  0  0  0
   -2.3952    4.6938    1.4871 H   0  0  0  0  0  0  0  0  0  0  0  0
   -0.1495    4.6674   -0.0121 H   0  0  0  0  0  0  0  0  0  0  0  0
   -0.2205    3.5686   -1.3878 H   0  0  0  0  0  0  0  0  0  0  0  0
   -0.2921    2.9231    1.6127 H   0  0  0  0  0  0  0  0  0  0  0  0
    1.8583    3.5310    0.7135 H   0  0  0  0  0  0  0  0  0  0  0  0
    4.0189    2.3665   -0.4926 H   0  0  0  0  0  0  0  0  0  0  0  0
    4.7264    3.5176    1.3062 H   0  0  0  0  0  0  0  0  0  0  0  0
    4.8138    1.9833    2.2733 H   0  0  0  0  0  0  0  0  0  0  0  0
    3.2643    2.8508    2.2051 H   0  0  0  0  0  0  0  0  0  0  0  0
    4.5553   -0.1078    1.1549 H   0  0  0  0  0  0  0  0  0  0  0  0
    4.7876   -2.3304    1.3138 H   0  0  0  0  0  0  0  0  0  0  0  0
    6.3091   -1.3582    1.8020 H   0  0  0  0  0  0  0  0  0  0  0  0
    6.3074   -3.1476    1.5962 H   0  0  0  0  0  0  0  0  0  0  0  0
    7.5483   -4.5386    0.5918 H   0  0  0  0  0  0  0  0  0  0  0  0
    8.9670   -5.8866   -0.8824 H   0  0  0  0  0  0  0  0  0  0  0  0
    9.4007   -5.1508   -3.1640 H   0  0  0  0  0  0  0  0  0  0  0  0
    8.4043   -3.0471   -3.9622 H   0  0  0  0  0  0  0  0  0  0  0  0
    7.4153   -0.4803   -2.5389 H   0  0  0  0  0  0  0  0  0  0  0  0
    5.8960   -1.3466   -3.1464 H   0  0  0  0  0  0  0  0  0  0  0  0
    0.2935    0.1382    1.7920 H   0  0  0  0  0  0  0  0  0  0  0  0
   -0.8557   -1.7574    1.7700 H   0  0  0  0  0  0  0  0  0  0  0  0
   -3.0323    0.2881    1.3318 H   0  0  0  0  0  0  0  0  0  0  0  0
   -2.4490   -0.5598    2.7456 H   0  0  0  0  0  0  0  0  0  0  0  0
   -3.5825   -2.6279    2.1075 H   0  0  0  0  0  0  0  0  0  0  0  0
   -4.5451   -0.8841    3.5485 H   0  0  0  0  0  0  0  0  0  0  0  0
   -5.7525   -1.7610    2.4763 H   0  0  0  0  0  0  0  0  0  0  0  0
   -6.2138    0.6145    2.7347 H   0  0  0  0  0  0  0  0  0  0  0  0
   -4.7035    1.1000    1.9345 H   0  0  0  0  0  0  0  0  0  0  0  0
   -7.0188   -0.4978    0.6892 H   0  0  0  0  0  0  0  0  0  0  0  0
   -6.2137    1.0942    0.2298 H   0  0  0  0  0  0  0  0  0  0  0  0
   -5.5924   -0.8695   -1.2034 H   0  0  0  0  0  0  0  0  0  0  0  0
   -4.2689    0.0909   -0.4886 H   0  0  0  0  0  0  0  0  0  0  0  0
   -5.4849   -2.4651    0.6476 H   0  0  0  0  0  0  0  0  0  0  0  0
   -4.1005   -2.4727   -0.4294 H   0  0  0  0  0  0  0  0  0  0  0  0
   -1.1244   -4.9019    0.0776 H   0  0  0  0  0  0  0  0  0  0  0  0
   -2.8076   -4.3400    0.1480 H   0  0  0  0  0  0  0  0  0  0  0  0
   -1.5916   -3.5424    1.2083 H   0  0  0  0  0  0  0  0  0  0  0  0
   -2.3817   -4.1438   -2.4214 H   0  0  0  0  0  0  0  0  0  0  0  0
   -1.8654   -2.4727   -3.0068 H   0  0  0  0  0  0  0  0  0  0  0  0
   -2.2107    2.9749   -2.4234 H   0  0  0  0  0  0  0  0  0  0  0  0
   -4.6054    3.2573   -2.6874 H   0  0  0  0  0  0  0  0  0  0  0  0
  1  2  1  0
  2  3  1  0
  3  4  2  0
  4  5  1  0
  5  6  2  0
  6  7  1  0
  7  8  1  0
  8  9  1  0
  9 10  1  0
 10 11  2  0
 10 12  1  0
 12 13  1  0
 12 14  1  0
 14 15  1  0
 15 16  2  0
 15 17  1  0
 17 18  2  0
 18 19  1  0
 18 20  1  0
 20 21  2  0
 21 22  1  0
 22 23  2  0
 23 24  1  0
 24 25  2  0
 25 26  1  0
  8 27  1  0
 27 28  2  0
 27 29  1  0
 29 30  1  0
 30 31  1  0
 31 32  1  0
 32 33  1  0
 33 34  1  0
 34 35  1  0
 35 36  1  0
 36 37  1  0
 30 38  1  0
 38 39  2  0
 38 40  1  0
 40 41  1  1
 40 42  1  0
 42 43  1  0
  6 44  1  0
 44 45  2  0
 45  3  1  0
 26 17  1  0
 37 32  1  0
 43 40  1  0
 25 20  1  0
  1 46  1  0
  1 47  1  0
  1 48  1  0
  4 49  1  0
  5 50  1  0
  7 51  1  0
  7 52  1  0
  8 53  1  1
  9 54  1  0
 12 55  1  6
 13 56  1  0
 13 57  1  0
 13 58  1  0
 14 59  1  0
 19 60  1  0
 19 61  1  0
 19 62  1  0
 21 63  1  0
 22 64  1  0
 23 65  1  0
 24 66  1  0
 26 67  1  0
 26 68  1  0
 29 69  1  0
 30 70  1  1
 31 71  1  0
 31 72  1  0
 32 73  1  0
 33 74  1  0
 33 75  1  0
 34 76  1  0
 34 77  1  0
 35 78  1  0
 35 79  1  0
 36 80  1  0
 36 81  1  0
 37 82  1  0
 37 83  1  0
 41 84  1  0
 41 85  1  0
 41 86  1  0
 42 87  1  0
 42 88  1  0
 44 89  1  0
 45 90  1  0
M  END
$$$$
