@<TRIPOS>MOLECULE
*****
 90 94 0 0 0
SMALL
GASTEIGER

@<TRIPOS>ATOM
      1 C          -7.0671    4.8355    0.0124 C.3     1  UNL1        0.0788
      2 O          -6.2211    4.2742   -0.9594 O.3     1  UNL1       -0.4951
      3 C          -4.8665    4.1389   -0.7498 C.ar    1  UNL1        0.1201
      4 C          -4.2224    4.5259    0.3922 C.ar    1  UNL1       -0.0197
      5 C          -2.8640    4.3680    0.5518 C.ar    1  UNL1       -0.0550
      6 C          -2.0742    3.8053   -0.4427 C.ar    1  UNL1       -0.0449
      7 C          -0.6309    3.6827   -0.3317 C.3     1  UNL1       -0.0007
      8 C          -0.0402    2.6011    0.4632 C.3     1  UNL1        0.1034
      9 N           1.3762    2.5712    0.5001 N.am    1  UNL1       -0.3022
     10 C           2.3011    1.5465    0.3193 C.2     1  UNL1        0.2337
     11 O           1.9555    0.3885    0.0540 O.2     1  UNL1       -0.2738
     12 C           3.7914    1.7845    0.4371 C.3     1  UNL1        0.0969
     13 C           4.1587    2.6165    1.6124 C.3     1  UNL1       -0.0381
     14 N           4.5372    0.5370    0.3432 N.am    1  UNL1       -0.3005
     15 C           5.2341    0.1702   -0.8220 C.2     1  UNL1        0.2412
     16 O           5.1339    1.0251   -1.7933 O.2     1  UNL1       -0.2705
     17 C           6.0340   -1.0220   -1.0487 C.2     1  UNL1        0.0221
     18 C           6.3008   -1.9954   -0.2182 C.2     1  UNL1       -0.0346
     19 C           5.8706   -2.1786    1.2001 C.3     1  UNL1       -0.0387
     20 C           7.1676   -2.9960   -0.8894 C.ar    1  UNL1       -0.0182
     21 C           7.7203   -4.1764   -0.4258 C.ar    1  UNL1       -0.0541
     22 C           8.5266   -4.9487   -1.2560 C.ar    1  UNL1       -0.0612
     23 C           8.7723   -4.5360   -2.5387 C.ar    1  UNL1       -0.0615
     24 C           8.2082   -3.3610   -2.9642 C.ar    1  UNL1       -0.0577
     25 C           7.3969   -2.5654   -2.1572 C.ar    1  UNL1       -0.0355
     26 C           6.6957   -1.3021   -2.3783 C.3     1  UNL1        0.0033
     27 C          -0.8030    1.3544    0.4567 C.2     1  UNL1        0.2342
     28 O          -1.8635    1.3644   -0.2541 O.2     1  UNL1       -0.2738
     29 N          -0.5087    0.1624    1.1443 N.am    1  UNL1       -0.3040
     30 C          -1.3805   -1.0405    1.0146 C.3     1  UNL1        0.0847
     31 C          -2.6852   -0.7546    1.6337 C.3     1  UNL1       -0.0247
     32 C          -3.8155   -1.6728    1.6411 C.3     1  UNL1       -0.0390
     33 C          -4.9157   -1.0204    2.5148 C.3     1  UNL1       -0.0501
     34 C          -5.4331    0.2641    1.9997 C.3     1  UNL1       -0.0528
     35 C          -6.0602    0.0621    0.6405 C.3     1  UNL1       -0.0530
     36 C          -5.0746   -0.6147   -0.2481 C.3     1  UNL1       -0.0528
     37 C          -4.5391   -1.9087    0.3375 C.3     1  UNL1       -0.0501
     38 C          -1.2454   -1.5510   -0.3272 C.2     1  UNL1        0.1868
     39 O          -0.8825   -0.7555   -1.2249 O.2     1  UNL1       -0.2923
     40 C          -1.4656   -2.9267   -0.8383 C.3     1  UNL1        0.1492
     41 C          -1.7603   -3.9900    0.1880 C.3     1  UNL1       -0.0266
     42 C          -1.7856   -3.2338   -2.2035 C.3     1  UNL1        0.0847
     43 O          -0.4470   -3.4160   -1.7825 O.3     1  UNL1       -0.3605
     44 C          -2.7387    3.4188   -1.5917 C.ar    1  UNL1       -0.0550
     45 C          -4.1124    3.5737   -1.7641 C.ar    1  UNL1       -0.0197
     46 H          -8.0951    4.8709   -0.4096 H       1  UNL1        0.0660
     47 H          -6.7494    5.8636    0.2935 H       1  UNL1        0.0660
     48 H          -7.1242    4.2256    0.9285 H       1  UNL1        0.0660
     49 H          -4.8178    4.9649    1.1755 H       1  UNL1        0.0654
     50 H          -2.3952    4.6938    1.4871 H       1  UNL1        0.0621
     51 H          -0.1495    4.6674   -0.0121 H       1  UNL1        0.0336
     52 H          -0.2205    3.5686   -1.3878 H       1  UNL1        0.0336
     53 H          -0.2921    2.9231    1.6127 H       1  UNL1        0.0598
     54 H           1.8583    3.5310    0.7135 H       1  UNL1        0.1495
     55 H           4.0189    2.3665   -0.4926 H       1  UNL1        0.0592
     56 H           4.7264    3.5176    1.3062 H       1  UNL1        0.0252
     57 H           4.8138    1.9833    2.2733 H       1  UNL1        0.0252
     58 H           3.2643    2.8508    2.2051 H       1  UNL1        0.0252
     59 H           4.5553   -0.1078    1.1549 H       1  UNL1        0.1498
     60 H           4.7876   -2.3304    1.3138 H       1  UNL1        0.0278
     61 H           6.3091   -1.3582    1.8020 H       1  UNL1        0.0278
     62 H           6.3074   -3.1476    1.5962 H       1  UNL1        0.0278
     63 H           7.5483   -4.5386    0.5918 H       1  UNL1        0.0624
     64 H           8.9670   -5.8866   -0.8824 H       1  UNL1        0.0618
     65 H           9.4007   -5.1508   -3.1640 H       1  UNL1        0.0618
     66 H           8.4043   -3.0471   -3.9622 H       1  UNL1        0.0621
     67 H           7.4153   -0.4803   -2.5389 H       1  UNL1        0.0363
     68 H           5.8960   -1.3466   -3.1464 H       1  UNL1        0.0363
     69 H           0.2935    0.1382    1.7920 H       1  UNL1        0.1494
     70 H          -0.8557   -1.7574    1.7700 H       1  UNL1        0.0578
     71 H          -3.0323    0.2881    1.3318 H       1  UNL1        0.0290
     72 H          -2.4490   -0.5598    2.7456 H       1  UNL1        0.0290
     73 H          -3.5825   -2.6279    2.1075 H       1  UNL1        0.0301
     74 H          -4.5451   -0.8841    3.5485 H       1  UNL1        0.0268
     75 H          -5.7525   -1.7610    2.4763 H       1  UNL1        0.0268
     76 H          -6.2138    0.6145    2.7347 H       1  UNL1        0.0265
     77 H          -4.7035    1.1000    1.9345 H       1  UNL1        0.0265
     78 H          -7.0188   -0.4978    0.6892 H       1  UNL1        0.0265
     79 H          -6.2137    1.0942    0.2298 H       1  UNL1        0.0265
     80 H          -5.5924   -0.8695   -1.2034 H       1  UNL1        0.0265
     81 H          -4.2689    0.0909   -0.4886 H       1  UNL1        0.0265
     82 H          -5.4849   -2.4651    0.6476 H       1  UNL1        0.0268
     83 H          -4.1005   -2.4727   -0.4294 H       1  UNL1        0.0268
     84 H          -1.1244   -4.9019    0.0776 H       1  UNL1        0.0262
     85 H          -2.8076   -4.3400    0.1480 H       1  UNL1        0.0262
     86 H          -1.5916   -3.5424    1.2083 H       1  UNL1        0.0262
     87 H          -2.3817   -4.1438   -2.4214 H       1  UNL1        0.0593
     88 H          -1.8654   -2.4727   -3.0068 H       1  UNL1        0.0593
     89 H          -2.2107    2.9749   -2.4234 H       1  UNL1        0.0621
     90 H          -4.6054    3.2573   -2.6874 H       1  UNL1        0.0654
@<TRIPOS>BOND
     1     1     2    1
     2     2     3    1
     3     3     4   ar
     4     4     5   ar
     5     5     6   ar
     6     6     7    1
     7     7     8    1
     8     8     9    1
     9     9    10   am
    10    10    11    2
    11    10    12    1
    12    12    13    1
    13    12    14    1
    14    14    15   am
    15    15    16    2
    16    15    17    1
    17    17    18    2
    18    18    19    1
    19    18    20    1
    20    20    21   ar
    21    21    22   ar
    22    22    23   ar
    23    23    24   ar
    24    24    25   ar
    25    25    26    1
    26     8    27    1
    27    27    28    2
    28    27    29   am
    29    29    30    1
    30    30    31    1
    31    31    32    1
    32    32    33    1
    33    33    34    1
    34    34    35    1
    35    35    36    1
    36    36    37    1
    37    30    38    1
    38    38    39    2
    39    38    40    1
    40    40    41    1
    41    40    42    1
    42    42    43    1
    43     6    44   ar
    44    44    45   ar
    45    45     3   ar
    46    26    17    1
    47    37    32    1
    48    43    40    1
    49    25    20   ar
    50     1    46    1
    51     1    47    1
    52     1    48    1
    53     4    49    1
    54     5    50    1
    55     7    51    1
    56     7    52    1
    57     8    53    1
    58     9    54    1
    59    12    55    1
    60    13    56    1
    61    13    57    1
    62    13    58    1
    63    14    59    1
    64    19    60    1
    65    19    61    1
    66    19    62    1
    67    21    63    1
    68    22    64    1
    69    23    65    1
    70    24    66    1
    71    26    67    1
    72    26    68    1
    73    29    69    1
    74    30    70    1
    75    31    71    1
    76    31    72    1
    77    32    73    1
    78    33    74    1
    79    33    75    1
    80    34    76    1
    81    34    77    1
    82    35    78    1
    83    35    79    1
    84    36    80    1
    85    36    81    1
    86    37    82    1
    87    37    83    1
    88    41    84    1
    89    41    85    1
    90    41    86    1
    91    42    87    1
    92    42    88    1
    93    44    89    1
    94    45    90    1
