@<TRIPOS>MOLECULE
*****
 41 44 0 0 0
SMALL
GASTEIGER

@<TRIPOS>ATOM
      1 C          -7.2342   -1.0232   -0.6135 C.3     1  UNL1        0.0596
      2 S          -6.6665    0.5059    0.0736 S.O2    1  UNL1       -0.0059
      3 O          -7.2952    0.6788    1.4155 O.2     1  UNL1       -0.1696
      4 O          -7.1351    1.6264   -0.8079 O.2     1  UNL1       -0.1696
      5 C          -4.9318    0.5040    0.1299 C.ar    1  UNL1        0.0879
      6 C          -4.2788    0.0249    1.2467 C.ar    1  UNL1       -0.0363
      7 C          -2.8987    0.0379    1.2582 C.ar    1  UNL1       -0.0521
      8 C          -2.1493    0.5041    0.2128 C.ar    1  UNL1       -0.0128
      9 C          -0.7067    0.5267    0.2041 C.ar    1  UNL1        0.0449
     10 C           0.0199    0.9637    1.2849 C.ar    1  UNL1        0.0424
     11 N           1.3628    0.9706    1.2406 N.ar    1  UNL1       -0.2233
     12 C           2.0582    0.5618    0.1661 C.ar    1  UNL1        0.2028
     13 N           3.4791    0.5763    0.1379 N.pl3   1  UNL1       -0.3074
     14 C           4.2815   -0.5481    0.5663 C.3     1  UNL1        0.0699
     15 C           5.7189   -0.2176    0.4139 C.ar    1  UNL1        0.1218
     16 C           6.4899    0.3782    1.4105 C.ar    1  UNL1       -0.0192
     17 C           7.7554    0.5238    0.9017 C.ar    1  UNL1       -0.0236
     18 C           7.7241    0.0173   -0.3818 C.ar    1  UNL1        0.0921
     19 O           6.5166   -0.3934   -0.5965 O.2     1  UNL1       -0.4662
     20 N           1.3512    0.1274   -0.9089 N.ar    1  UNL1       -0.2530
     21 C           1.7981   -0.3338   -2.1056 C.ar    1  UNL1        0.1267
     22 N           0.7183   -0.6328   -2.8182 N.ar    1  UNL1       -0.1371
     23 N          -0.3745   -0.3795   -2.1222 N.ar    1  UNL1       -0.1289
     24 C           0.0076    0.1041   -0.9065 C.ar    1  UNL1        0.1726
     25 C          -2.8324    0.9807   -0.8990 C.ar    1  UNL1       -0.0521
     26 C          -4.2125    0.9803   -0.9395 C.ar    1  UNL1       -0.0363
     27 H          -7.1615   -1.7992    0.1744 H       1  UNL1        0.0468
     28 H          -8.2774   -0.9098   -0.9637 H       1  UNL1        0.0468
     29 H          -6.5526   -1.2975   -1.4389 H       1  UNL1        0.0468
     30 H          -4.8433   -0.3590    2.1091 H       1  UNL1        0.0637
     31 H          -2.3975   -0.3374    2.1327 H       1  UNL1        0.0624
     32 H          -0.4722    1.3061    2.1806 H       1  UNL1        0.0838
     33 H           3.9575    1.4573   -0.2154 H       1  UNL1        0.1493
     34 H           4.0097   -0.7639    1.6221 H       1  UNL1        0.0543
     35 H           4.0146   -1.4528   -0.0395 H       1  UNL1        0.0543
     36 H           6.1055    0.6580    2.3999 H       1  UNL1        0.0652
     37 H           8.6076    0.9580    1.4252 H       1  UNL1        0.0649
     38 H           8.6015    0.0080   -1.0184 H       1  UNL1        0.1029
     39 H           2.8555   -0.4168   -2.3658 H       1  UNL1        0.1052
     40 H          -2.2752    1.3612   -1.7538 H       1  UNL1        0.0624
     41 H          -4.7380    1.3542   -1.8116 H       1  UNL1        0.0637
@<TRIPOS>BOND
     1     1     2    1
     2     2     3    2
     3     2     4    2
     4     2     5    1
     5     5     6   ar
     6     6     7   ar
     7     7     8   ar
     8     8     9    1
     9     9    10   ar
    10    10    11   ar
    11    11    12   ar
    12    12    13    1
    13    13    14    1
    14    14    15    1
    15    15    16   ar
    16    16    17   ar
    17    17    18   ar
    18    18    19   ar
    19    12    20   ar
    20    20    21   ar
    21    21    22   ar
    22    22    23   ar
    23    23    24   ar
    24     8    25   ar
    25    25    26   ar
    26    26     5   ar
    27    24     9   ar
    28    19    15   ar
    29    24    20   ar
    30     1    27    1
    31     1    28    1
    32     1    29    1
    33     6    30    1
    34     7    31    1
    35    10    32    1
    36    13    33    1
    37    14    34    1
    38    14    35    1
    39    16    36    1
    40    17    37    1
    41    18    38    1
    42    21    39    1
    43    25    40    1
    44    26    41    1
