
     RDKit          3D

 41 44  0  0  0  0  0  0  0  0999 V2000
   -7.2342   -1.0232   -0.6135 C   0  0  0  0  0  0  0  0  0  0  0  0
   -6.6665    0.5059    0.0736 S   0  0  0  0  0  6  0  0  0  0  0  0
   -7.2952    0.6788    1.4155 O   0  0  0  0  0  0  0  0  0  0  0  0
   -7.1351    1.6264   -0.8079 O   0  0  0  0  0  0  0  0  0  0  0  0
   -4.9318    0.5040    0.1299 C   0  0  0  0  0  0  0  0  0  0  0  0
   -4.2788    0.0249    1.2467 C   0  0  0  0  0  0  0  0  0  0  0  0
   -2.8987    0.0379    1.2582 C   0  0  0  0  0  0  0  0  0  0  0  0
   -2.1493    0.5041    0.2128 C   0  0  0  0  0  0  0  0  0  0  0  0
   -0.7067    0.5267    0.2041 C   0  0  0  0  0  0  0  0  0  0  0  0
    0.0199    0.9637    1.2849 C   0  0  0  0  0  0  0  0  0  0  0  0
    1.3628    0.9706    1.2406 N   0  0  0  0  0  0  0  0  0  0  0  0
    2.0582    0.5618    0.1661 C   0  0  0  0  0  0  0  0  0  0  0  0
    3.4791    0.5763    0.1379 N   0  0  0  0  0  0  0  0  0  0  0  0
    4.2815   -0.5481    0.5663 C   0  0  0  0  0  0  0  0  0  0  0  0
    5.7189   -0.2176    0.4139 C   0  0  0  0  0  0  0  0  0  0  0  0
    6.4899    0.3782    1.4105 C   0  0  0  0  0  0  0  0  0  0  0  0
    7.7554    0.5238    0.9017 C   0  0  0  0  0  0  0  0  0  0  0  0
    7.7241    0.0173   -0.3818 C   0  0  0  0  0  0  0  0  0  0  0  0
    6.5166   -0.3934   -0.5965 O   0  0  0  0  0  0  0  0  0  0  0  0
    1.3512    0.1274   -0.9089 N   0  0  0  0  0  0  0  0  0  0  0  0
    1.7981   -0.3338   -2.1056 C   0  0  0  0  0  0  0  0  0  0  0  0
    0.7183   -0.6328   -2.8182 N   0  0  0  0  0  0  0  0  0  0  0  0
   -0.3745   -0.3795   -2.1222 N   0  0  0  0  0  0  0  0  0  0  0  0
    0.0076    0.1041   -0.9065 C   0  0  0  0  0  0  0  0  0  0  0  0
   -2.8324    0.9807   -0.8990 C   0  0  0  0  0  0  0  0  0  0  0  0
   -4.2125    0.9803   -0.9395 C   0  0  0  0  0  0  0  0  0  0  0  0
   -7.1615   -1.7992    0.1744 H   0  0  0  0  0  0  0  0  0  0  0  0
   -8.2774   -0.9098   -0.9637 H   0  0  0  0  0  0  0  0  0  0  0  0
   -6.5526   -1.2975   -1.4389 H   0  0  0  0  0  0  0  0  0  0  0  0
   -4.8433   -0.3590    2.1091 H   0  0  0  0  0  0  0  0  0  0  0  0
   -2.3975   -0.3374    2.1327 H   0  0  0  0  0  0  0  0  0  0  0  0
   -0.4722    1.3061    2.1806 H   0  0  0  0  0  0  0  0  0  0  0  0
    3.9575    1.4573   -0.2154 H   0  0  0  0  0  0  0  0  0  0  0  0
    4.0097   -0.7639    1.6221 H   0  0  0  0  0  0  0  0  0  0  0  0
    4.0146   -1.4528   -0.0395 H   0  0  0  0  0  0  0  0  0  0  0  0
    6.1055    0.6580    2.3999 H   0  0  0  0  0  0  0  0  0  0  0  0
    8.6076    0.9580    1.4252 H   0  0  0  0  0  0  0  0  0  0  0  0
    8.6015    0.0080   -1.0184 H   0  0  0  0  0  0  0  0  0  0  0  0
    2.8555   -0.4168   -2.3658 H   0  0  0  0  0  0  0  0  0  0  0  0
   -2.2752    1.3612   -1.7538 H   0  0  0  0  0  0  0  0  0  0  0  0
   -4.7380    1.3542   -1.8116 H   0  0  0  0  0  0  0  0  0  0  0  0
  1  2  1  0
  2  3  2  0
  2  4  2  0
  2  5  1  0
  5  6  2  0
  6  7  1  0
  7  8  2  0
  8  9  1  0
  9 10  2  0
 10 11  1  0
 11 12  2  0
 12 13  1  0
 13 14  1  0
 14 15  1  0
 15 16  2  0
 16 17  1  0
 17 18  2  0
 18 19  1  0
 12 20  1  0
 20 21  1  0
 21 22  2  0
 22 23  1  0
 23 24  2  0
  8 25  1  0
 25 26  2  0
 26  5  1  0
 24  9  1  0
 19 15  1  0
 24 20  1  0
  1 27  1  0
  1 28  1  0
  1 29  1  0
  6 30  1  0
  7 31  1  0
 10 32  1  0
 13 33  1  0
 14 34  1  0
 14 35  1  0
 16 36  1  0
 17 37  1  0
 18 38  1  0
 21 39  1  0
 25 40  1  0
 26 41  1  0
M  END
$$$$
