@<TRIPOS>MOLECULE
*****
 68 73 0 0 0
SMALL
GASTEIGER

@<TRIPOS>ATOM
      1 O          -6.1450    4.7488    1.6389 O.2     1  UNL1        0.0415
      2 N          -5.0241    4.3936    1.1874 N.pl3   1  UNL1        0.0804
      3 O          -3.8943    4.8869    1.7764 O.co2   1  UNL1       -0.5760
      4 C          -4.9048    3.5052    0.0979 C.ar    1  UNL1        0.2843
      5 C          -5.9559    3.5119   -0.8214 C.ar    1  UNL1        0.0164
      6 C          -5.9036    2.6670   -1.9026 C.ar    1  UNL1       -0.0534
      7 C          -4.8213    1.8191   -2.0780 C.ar    1  UNL1       -0.0371
      8 C          -3.7705    1.8015   -1.1728 C.ar    1  UNL1        0.0583
      9 C          -3.8426    2.6508   -0.1031 C.ar    1  UNL1        0.1029
     10 C          -2.6898    2.4230    0.6188 C.ar    1  UNL1        0.1080
     11 N          -2.1947    2.9453    1.7532 N.ar    1  UNL1       -0.2329
     12 C          -1.0251    2.5838    2.2977 C.ar    1  UNL1        0.1189
     13 N          -0.3345    1.6554    1.6573 N.ar    1  UNL1       -0.2186
     14 C          -0.7354    1.0524    0.4935 C.ar    1  UNL1        0.1489
     15 N           0.1757    0.1945   -0.1232 N.pl3   1  UNL1       -0.3110
     16 C           1.0590    0.7089   -1.1849 C.3     1  UNL1        0.0264
     17 C           1.8966   -0.4002   -1.7277 C.3     1  UNL1        0.0147
     18 N           2.5848   -1.1908   -0.7581 N.3     1  UNL1       -0.2990
     19 C           3.8949   -0.7036   -0.4362 C.3     1  UNL1        0.0030
     20 C           4.5627   -1.6050    0.5715 C.3     1  UNL1       -0.0148
     21 C           5.9141   -1.0123    0.8400 C.ar    1  UNL1       -0.0433
     22 C           6.1077   -0.0892    1.8461 C.ar    1  UNL1       -0.0556
     23 C           7.4009    0.4033    2.0150 C.ar    1  UNL1       -0.0233
     24 C           8.4550    0.0007    1.2241 C.ar    1  UNL1        0.1584
     25 F           9.7028    0.5181    1.4357 F       1  UNL1       -0.2025
     26 C           8.2281   -0.9198    0.2314 C.ar    1  UNL1        0.1587
     27 F           9.2655   -1.3177   -0.5487 F       1  UNL1       -0.2025
     28 C           6.9478   -1.4342    0.0332 C.ar    1  UNL1       -0.0204
     29 C           1.8641   -1.4353    0.4643 C.3     1  UNL1        0.0147
     30 C           0.3698   -1.1862    0.2082 C.3     1  UNL1        0.0264
     31 C          -1.9446    1.4310   -0.0527 C.ar    1  UNL1        0.1093
     32 N          -2.6214    1.0592   -1.1388 N.ar    1  UNL1       -0.3354
     33 C          -2.3451   -0.0089   -2.0443 C.3     1  UNL1        0.0280
     34 C          -3.1783   -1.2276   -1.8169 C.3     1  UNL1       -0.0096
     35 C          -3.1303   -1.9090   -0.5534 C.ar    1  UNL1       -0.0457
     36 C          -3.9057   -1.4802    0.5250 C.ar    1  UNL1       -0.0585
     37 C          -3.8294   -2.2157    1.6806 C.ar    1  UNL1       -0.0615
     38 C          -3.0330   -3.3335    1.8059 C.ar    1  UNL1       -0.0617
     39 C          -2.2607   -3.7698    0.7487 C.ar    1  UNL1       -0.0615
     40 C          -2.3424   -3.0297   -0.4024 C.ar    1  UNL1       -0.0585
     41 H          -6.8053    4.1596   -0.7073 H       1  UNL1        0.0685
     42 H          -6.7127    2.6699   -2.6133 H       1  UNL1        0.0620
     43 H          -4.8193    1.1800   -2.9302 H       1  UNL1        0.0638
     44 H          -0.6396    3.0140    3.2164 H       1  UNL1        0.1048
     45 H           0.5013    1.1840   -1.9998 H       1  UNL1        0.0477
     46 H           1.6965    1.5232   -0.7441 H       1  UNL1        0.0477
     47 H           1.2396   -1.0299   -2.3967 H       1  UNL1        0.0442
     48 H           2.6592    0.0600   -2.4112 H       1  UNL1        0.0442
     49 H           4.5193   -0.6512   -1.3337 H       1  UNL1        0.0430
     50 H           3.8554    0.3140    0.0375 H       1  UNL1        0.0430
     51 H           4.7027   -2.6272    0.1242 H       1  UNL1        0.0326
     52 H           4.0043   -1.7612    1.4956 H       1  UNL1        0.0326
     53 H           5.2813    0.2236    2.4627 H       1  UNL1        0.0621
     54 H           7.5354    1.1290    2.8113 H       1  UNL1        0.0647
     55 H           6.8241   -2.1478   -0.7529 H       1  UNL1        0.0650
     56 H           2.2143   -0.8305    1.3223 H       1  UNL1        0.0442
     57 H           1.9545   -2.5118    0.7087 H       1  UNL1        0.0442
     58 H          -0.2646   -1.5853    0.9955 H       1  UNL1        0.0477
     59 H           0.1740   -1.7701   -0.7371 H       1  UNL1        0.0477
     60 H          -2.6276    0.3644   -3.0729 H       1  UNL1        0.0495
     61 H          -1.3168   -0.3023   -2.0904 H       1  UNL1        0.0495
     62 H          -4.2589   -0.9755   -2.0429 H       1  UNL1        0.0330
     63 H          -2.9315   -1.9681   -2.6362 H       1  UNL1        0.0330
     64 H          -4.5376   -0.5947    0.4284 H       1  UNL1        0.0620
     65 H          -4.4460   -1.8658    2.5218 H       1  UNL1        0.0618
     66 H          -3.0333   -3.8535    2.7530 H       1  UNL1        0.0618
     67 H          -1.6450   -4.6494    0.8731 H       1  UNL1        0.0618
     68 H          -1.7208   -3.3897   -1.2373 H       1  UNL1        0.0620
@<TRIPOS>UNITY_ATOM_ATTR
2 1
charge 1
3 1
charge -1
@<TRIPOS>BOND
     1     1     2    2
     2     2     3    1
     3     2     4    1
     4     4     5   ar
     5     5     6   ar
     6     6     7   ar
     7     7     8   ar
     8     8     9   ar
     9     9    10   ar
    10    10    11   ar
    11    11    12   ar
    12    12    13   ar
    13    13    14   ar
    14    14    15    1
    15    15    16    1
    16    16    17    1
    17    17    18    1
    18    18    19    1
    19    19    20    1
    20    20    21    1
    21    21    22   ar
    22    22    23   ar
    23    23    24   ar
    24    24    25    1
    25    24    26   ar
    26    26    27    1
    27    26    28   ar
    28    18    29    1
    29    29    30    1
    30    14    31   ar
    31    31    32   ar
    32    32    33    1
    33    33    34    1
    34    34    35    1
    35    35    36   ar
    36    36    37   ar
    37    37    38   ar
    38    38    39   ar
    39    39    40   ar
    40     9     4   ar
    41    31    10   ar
    42    40    35   ar
    43    32     8   ar
    44    30    15    1
    45    28    21   ar
    46     5    41    1
    47     6    42    1
    48     7    43    1
    49    12    44    1
    50    16    45    1
    51    16    46    1
    52    17    47    1
    53    17    48    1
    54    19    49    1
    55    19    50    1
    56    20    51    1
    57    20    52    1
    58    22    53    1
    59    23    54    1
    60    28    55    1
    61    29    56    1
    62    29    57    1
    63    30    58    1
    64    30    59    1
    65    33    60    1
    66    33    61    1
    67    34    62    1
    68    34    63    1
    69    36    64    1
    70    37    65    1
    71    38    66    1
    72    39    67    1
    73    40    68    1
