
     RDKit          3D

 60 62  0  0  0  0  0  0  0  0999 V2000
    5.5165    2.9790   -1.3175 C   0  0  0  0  0  0  0  0  0  0  0  0
    4.9189    1.8266   -0.6447 N   0  0  0  0  0  4  0  0  0  0  0  0
    5.9244    0.8051   -0.4429 C   0  0  0  0  0  0  0  0  0  0  0  0
    3.9799    1.3452   -1.4913 O   0  0  0  0  0  1  0  0  0  0  0  0
    4.3516    2.1855    0.6181 C   0  0  0  0  0  0  0  0  0  0  0  0
    2.8864    1.9308    0.6583 C   0  0  0  0  0  0  0  0  0  0  0  0
    2.4781    0.5579    0.4549 N   0  0  0  0  0  0  0  0  0  0  0  0
    1.0938    0.2394    0.4977 C   0  0  0  0  0  0  0  0  0  0  0  0
    0.1707    1.2322    0.7380 C   0  0  0  0  0  0  0  0  0  0  0  0
   -1.1626    0.9847    0.7934 C   0  0  0  0  0  0  0  0  0  0  0  0
   -1.6767   -0.2767    0.6119 C   0  0  0  0  0  0  0  0  0  0  0  0
   -3.0800   -0.4579    0.7119 N   0  0  0  0  0  0  0  0  0  0  0  0
   -3.9852    0.6485    0.9417 C   0  0  0  0  0  0  0  0  0  0  0  0
   -4.1857    1.5438   -0.2349 C   0  0  0  0  0  0  0  0  0  0  0  0
   -5.1133    2.5930    0.1992 N   0  0  0  0  0  4  0  0  0  0  0  0
   -4.9430    3.7880   -0.6185 C   0  0  0  0  0  0  0  0  0  0  0  0
   -6.4663    2.1236   -0.0042 C   0  0  0  0  0  0  0  0  0  0  0  0
   -4.9511    2.8955    1.5054 O   0  0  0  0  0  1  0  0  0  0  0  0
   -0.7611   -1.2714    0.3721 C   0  0  0  0  0  0  0  0  0  0  0  0
    0.5934   -1.0276    0.3148 C   0  0  0  0  0  0  0  0  0  0  0  0
    1.4819   -2.1391    0.0559 C   0  0  0  0  0  0  0  0  0  0  0  0
    2.7293   -2.0357   -0.0179 O   0  0  0  0  0  0  0  0  0  0  0  0
    1.0311   -3.5104   -0.1497 C   0  0  0  0  0  0  0  0  0  0  0  0
    1.8943   -4.5837   -0.4000 C   0  0  0  0  0  0  0  0  0  0  0  0
    3.2588   -4.3154   -0.4537 O   0  0  0  0  0  0  0  0  0  0  0  0
    1.4293   -5.8678   -0.5893 C   0  0  0  0  0  0  0  0  0  0  0  0
    0.0914   -6.1065   -0.5325 C   0  0  0  0  0  0  0  0  0  0  0  0
   -0.7838   -5.0703   -0.2877 C   0  0  0  0  0  0  0  0  0  0  0  0
   -2.1463   -5.3153   -0.2301 O   0  0  0  0  0  0  0  0  0  0  0  0
   -0.3461   -3.7566   -0.0912 C   0  0  0  0  0  0  0  0  0  0  0  0
   -1.2362   -2.6313    0.1702 C   0  0  0  0  0  0  0  0  0  0  0  0
   -2.4350   -2.9840    0.1968 O   0  0  0  0  0  0  0  0  0  0  0  0
    5.0037    3.9222   -1.0690 H   0  0  0  0  0  0  0  0  0  0  0  0
    5.5713    2.7880   -2.4096 H   0  0  0  0  0  0  0  0  0  0  0  0
    6.5622    3.0768   -0.9649 H   0  0  0  0  0  0  0  0  0  0  0  0
    6.8461    1.0204   -1.0264 H   0  0  0  0  0  0  0  0  0  0  0  0
    6.1519    0.7608    0.6384 H   0  0  0  0  0  0  0  0  0  0  0  0
    5.4889   -0.1781   -0.7229 H   0  0  0  0  0  0  0  0  0  0  0  0
    4.8131    1.6087    1.4710 H   0  0  0  0  0  0  0  0  0  0  0  0
    4.5173    3.2648    0.8140 H   0  0  0  0  0  0  0  0  0  0  0  0
    2.5321    2.2003    1.6940 H   0  0  0  0  0  0  0  0  0  0  0  0
    2.3188    2.5676   -0.0589 H   0  0  0  0  0  0  0  0  0  0  0  0
    3.3383    0.0138    0.3052 H   0  0  0  0  0  0  0  0  0  0  0  0
    0.5675    2.2478    0.8871 H   0  0  0  0  0  0  0  0  0  0  0  0
   -1.7506    1.8896    1.0083 H   0  0  0  0  0  0  0  0  0  0  0  0
   -3.6975   -1.2860    0.6531 H   0  0  0  0  0  0  0  0  0  0  0  0
   -3.5247    1.2725    1.7767 H   0  0  0  0  0  0  0  0  0  0  0  0
   -4.9724    0.3865    1.3324 H   0  0  0  0  0  0  0  0  0  0  0  0
   -4.7192    0.9846   -1.0419 H   0  0  0  0  0  0  0  0  0  0  0  0
   -3.3181    2.0006   -0.6839 H   0  0  0  0  0  0  0  0  0  0  0  0
   -3.8690    3.9038   -0.8632 H   0  0  0  0  0  0  0  0  0  0  0  0
   -5.3141    4.6823   -0.1029 H   0  0  0  0  0  0  0  0  0  0  0  0
   -5.4924    3.7219   -1.5892 H   0  0  0  0  0  0  0  0  0  0  0  0
   -6.5236    1.7642   -1.0641 H   0  0  0  0  0  0  0  0  0  0  0  0
   -7.1246    3.0265    0.0922 H   0  0  0  0  0  0  0  0  0  0  0  0
   -6.7419    1.3372    0.7304 H   0  0  0  0  0  0  0  0  0  0  0  0
    3.5997   -3.9547   -1.3411 H   0  0  0  0  0  0  0  0  0  0  0  0
    2.1453   -6.6533   -0.7788 H   0  0  0  0  0  0  0  0  0  0  0  0
   -0.3300   -7.0947   -0.6735 H   0  0  0  0  0  0  0  0  0  0  0  0
   -2.6355   -5.6031    0.5986 H   0  0  0  0  0  0  0  0  0  0  0  0
  1  2  1  0
  2  3  1  0
  2  4  1  0
  2  5  1  0
  5  6  1  0
  6  7  1  0
  7  8  1  0
  8  9  2  0
  9 10  1  0
 10 11  2  0
 11 12  1  0
 12 13  1  0
 13 14  1  0
 14 15  1  0
 15 16  1  0
 15 17  1  0
 15 18  1  0
 11 19  1  0
 19 20  2  0
 20 21  1  0
 21 22  2  0
 21 23  1  0
 23 24  2  0
 24 25  1  0
 24 26  1  0
 26 27  2  0
 27 28  1  0
 28 29  1  0
 28 30  2  0
 30 31  1  0
 31 32  2  0
 20  8  1  0
 30 23  1  0
 31 19  1  0
  1 33  1  0
  1 34  1  0
  1 35  1  0
  3 36  1  0
  3 37  1  0
  3 38  1  0
  5 39  1  0
  5 40  1  0
  6 41  1  0
  6 42  1  0
  7 43  1  0
  9 44  1  0
 10 45  1  0
 12 46  1  0
 13 47  1  0
 13 48  1  0
 14 49  1  0
 14 50  1  0
 16 51  1  0
 16 52  1  0
 16 53  1  0
 17 54  1  0
 17 55  1  0
 17 56  1  0
 25 57  1  0
 26 58  1  0
 27 59  1  0
 29 60  1  0
M  CHG  4   2   1   4  -1  15   1  18  -1
M  END
$$$$
