@<TRIPOS>MOLECULE
*****
 41 43 0 0 0
SMALL
GASTEIGER

@<TRIPOS>ATOM
      1 C          -2.0182    1.1496   -1.6160 C.3     1  UNL1       -0.0354
      2 C          -2.3808    0.0388   -0.5864 C.3     1  UNL1        0.0897
      3 C          -1.0816   -0.5352   -0.0942 C.ar    1  UNL1        0.0154
      4 C           0.1211    0.0331   -0.4203 C.ar    1  UNL1       -0.0464
      5 C           1.3198   -0.4885    0.0343 C.ar    1  UNL1        0.0021
      6 C           2.6404    0.1209   -0.3096 C.3     1  UNL1        0.0253
      7 N           3.0925    0.8396    0.8570 N.3     1  UNL1       -0.2949
      8 C           4.3720    1.4803    0.6571 C.3     1  UNL1        0.1072
      9 C           5.4394    0.5178    0.3223 C.1     1  UNL1        0.0847
     10 N           6.2924   -0.2372    0.0750 N.1     1  UNL1       -0.1946
     11 C           4.8148    2.5796    1.5510 C.3     1  UNL1       -0.0188
     12 C           4.4432    2.8186    0.0609 C.3     1  UNL1       -0.0188
     13 C           1.2790   -1.6152    0.8388 C.ar    1  UNL1        0.1305
     14 F           2.4834   -2.1148    1.2785 F       1  UNL1       -0.2051
     15 C           0.0893   -2.2052    1.1813 C.ar    1  UNL1        0.0095
     16 C          -1.1076   -1.6511    0.7035 C.ar    1  UNL1        0.1316
     17 F          -2.2357   -2.2861    1.0800 F       1  UNL1       -0.2050
     18 C          -3.0667    0.6965    0.5351 C.3     1  UNL1       -0.0142
     19 C          -4.3923    0.2053    0.9765 C.3     1  UNL1        0.0034
     20 S          -5.3613   -0.1810   -0.5400 S.3     1  UNL1       -0.0910
     21 C          -4.2404   -1.2195   -1.4465 C.2     1  UNL1        0.1475
     22 N          -4.7323   -2.2584   -2.2339 N.pl3   1  UNL1       -0.3380
     23 N          -3.0156   -0.9680   -1.3372 N.2     1  UNL1       -0.2524
     24 H          -1.3645    0.7337   -2.3973 H       1  UNL1        0.0256
     25 H          -1.6185    2.0209   -1.1009 H       1  UNL1        0.0256
     26 H          -2.9931    1.4324   -2.0658 H       1  UNL1        0.0256
     27 H           0.1864    0.9268   -1.0550 H       1  UNL1        0.0626
     28 H           2.4585    0.8946   -1.1039 H       1  UNL1        0.0475
     29 H           3.3549   -0.6350   -0.6804 H       1  UNL1        0.0475
     30 H           3.0592    0.2827    1.7265 H       1  UNL1        0.1237
     31 H           4.1450    3.0400    2.3052 H       1  UNL1        0.0294
     32 H           5.8903    2.6931    1.7951 H       1  UNL1        0.0294
     33 H           3.4772    3.3690   -0.0633 H       1  UNL1        0.0294
     34 H           5.2859    3.0821   -0.6089 H       1  UNL1        0.0294
     35 H           0.1006   -3.0764    1.8058 H       1  UNL1        0.0675
     36 H          -2.4248    0.7267    1.4784 H       1  UNL1        0.0300
     37 H          -3.2022    1.8079    0.3336 H       1  UNL1        0.0300
     38 H          -4.3702   -0.7302    1.5706 H       1  UNL1        0.0381
     39 H          -4.9053    1.0020    1.5545 H       1  UNL1        0.0381
     40 H          -4.9133   -2.1085   -3.2434 H       1  UNL1        0.1442
     41 H          -4.9207   -3.1897   -1.8180 H       1  UNL1        0.1442
@<TRIPOS>BOND
     1     2     1    1
     2     2     3    1
     3     3     4   ar
     4     4     5   ar
     5     5     6    1
     6     6     7    1
     7     7     8    1
     8     8     9    1
     9     9    10    3
    10     8    11    1
    11    11    12    1
    12     5    13   ar
    13    13    14    1
    14    13    15   ar
    15    15    16   ar
    16    16    17    1
    17     2    18    1
    18    18    19    1
    19    19    20    1
    20    20    21    1
    21    21    22    1
    22    21    23    2
    23    23     2    1
    24    16     3   ar
    25    12     8    1
    26     1    24    1
    27     1    25    1
    28     1    26    1
    29     4    27    1
    30     6    28    1
    31     6    29    1
    32     7    30    1
    33    11    31    1
    34    11    32    1
    35    12    33    1
    36    12    34    1
    37    15    35    1
    38    18    36    1
    39    18    37    1
    40    19    38    1
    41    19    39    1
    42    22    40    1
    43    22    41    1
