@<TRIPOS>MOLECULE
*****
 62 66 0 0 0
SMALL
GASTEIGER

@<TRIPOS>ATOM
      1 C           2.8147    4.6081   -1.6324 C.3     1  UNL1       -0.0653
      2 C           2.1753    4.4369   -0.2862 C.3     1  UNL1       -0.0556
      3 C           2.5087    3.1038    0.3296 C.3     1  UNL1       -0.0478
      4 C           2.0113    1.9908   -0.5815 C.3     1  UNL1       -0.0084
      5 C           2.3088    0.6347   -0.0230 C.ar    1  UNL1        0.0677
      6 N           3.3292   -0.1599   -0.4623 N.ar    1  UNL1       -0.1702
      7 N           3.3515   -1.2772    0.2185 N.ar    1  UNL1       -0.2224
      8 C           4.3158   -2.3049   -0.0386 C.ar    1  UNL1        0.1028
      9 C           4.1266   -3.1507   -1.1173 C.ar    1  UNL1        0.0678
     10 CL          2.7306   -2.9480   -2.1388 Cl      1  UNL1       -0.0813
     11 C           5.0171   -4.1646   -1.4184 C.ar    1  UNL1       -0.0412
     12 C           6.1212   -4.3402   -0.6275 C.ar    1  UNL1       -0.0589
     13 C           6.3384   -3.5188    0.4494 C.ar    1  UNL1       -0.0412
     14 C           5.4350   -2.5093    0.7344 C.ar    1  UNL1        0.0678
     15 CL          5.7403   -1.4805    2.1140 Cl      1  UNL1       -0.0813
     16 C           2.3696   -1.2912    1.1308 C.ar    1  UNL1        0.1548
     17 C           2.1206   -2.3911    2.0665 C.2     1  UNL1        0.3557
     18 O           1.2233   -2.3931    2.9119 O.2     1  UNL1       -0.2434
     19 O           2.9395   -3.5132    2.0108 O.3     1  UNL1       -0.4761
     20 C           1.7041   -0.0819    0.9819 C.ar    1  UNL1        0.0123
     21 C           0.5422    0.3358    1.7617 C.3     1  UNL1        0.0016
     22 C          -0.7687    0.2116    1.0748 C.ar    1  UNL1       -0.0429
     23 C          -1.4083   -1.0179    0.9419 C.ar    1  UNL1       -0.0577
     24 C          -2.6460   -1.1628    0.3254 C.ar    1  UNL1       -0.0537
     25 C          -3.2785   -0.0447   -0.1818 C.ar    1  UNL1       -0.0172
     26 C          -4.5475   -0.2017   -0.8631 C.ar    1  UNL1       -0.0072
     27 C          -4.5489   -0.8101   -2.1396 C.ar    1  UNL1       -0.0534
     28 C          -5.6988   -0.9404   -2.8559 C.ar    1  UNL1       -0.0611
     29 C          -6.9020   -0.4797   -2.3530 C.ar    1  UNL1       -0.0611
     30 C          -6.9201    0.1044   -1.1327 C.ar    1  UNL1       -0.0504
     31 C          -5.7369    0.2451   -0.3792 C.ar    1  UNL1        0.0282
     32 C          -5.8825    0.8153    0.9400 C.ar    1  UNL1        0.1799
     33 N          -6.9794    1.5202    1.3301 N.ar    1  UNL1       -0.1084
     34 N          -6.7804    1.9316    2.5539 N.ar    1  UNL1       -0.0229
     35 N          -5.6094    1.5147    2.9429 N.ar    1  UNL1       -0.0464
     36 N          -5.0393    0.8169    1.9463 N.ar    1  UNL1       -0.2388
     37 C          -2.6732    1.2028   -0.0704 C.ar    1  UNL1       -0.0537
     38 C          -1.4384    1.3075    0.5521 C.ar    1  UNL1       -0.0577
     39 H           3.5365    3.7936   -1.8719 H       1  UNL1        0.0230
     40 H           2.0492    4.6764   -2.4514 H       1  UNL1        0.0230
     41 H           3.4253    5.5558   -1.6365 H       1  UNL1        0.0230
     42 H           2.5927    5.2180    0.4157 H       1  UNL1        0.0263
     43 H           1.0794    4.5794   -0.4120 H       1  UNL1        0.0263
     44 H           2.1346    3.0431    1.3505 H       1  UNL1        0.0269
     45 H           3.6272    3.0310    0.3434 H       1  UNL1        0.0269
     46 H           0.9483    2.1506   -0.7494 H       1  UNL1        0.0329
     47 H           2.5533    2.0461   -1.5555 H       1  UNL1        0.0329
     48 H           4.8805   -4.8324   -2.2593 H       1  UNL1        0.0633
     49 H           6.8468   -5.1349   -0.8390 H       1  UNL1        0.0618
     50 H           7.2099   -3.6860    1.0437 H       1  UNL1        0.0633
     51 H           2.8432   -4.3021    2.6413 H       1  UNL1        0.2955
     52 H           0.5975    1.4164    2.0970 H       1  UNL1        0.0363
     53 H           0.5348   -0.2161    2.7397 H       1  UNL1        0.0363
     54 H          -0.9081   -1.8805    1.3369 H       1  UNL1        0.0621
     55 H          -3.1225   -2.1456    0.2382 H       1  UNL1        0.0624
     56 H          -3.6128   -1.1626   -2.5193 H       1  UNL1        0.0624
     57 H          -5.7056   -1.4034   -3.8303 H       1  UNL1        0.0618
     58 H          -7.8185   -0.5998   -2.9584 H       1  UNL1        0.0618
     59 H          -7.8742    0.4614   -0.7510 H       1  UNL1        0.0625
     60 H          -4.1071    0.3980    2.1020 H       1  UNL1        0.1923
     61 H          -3.1198    2.1019   -0.4464 H       1  UNL1        0.0624
     62 H          -0.9564    2.2931    0.6490 H       1  UNL1        0.0621
@<TRIPOS>BOND
     1     1     2    1
     2     2     3    1
     3     3     4    1
     4     4     5    1
     5     5     6   ar
     6     6     7   ar
     7     7     8    1
     8     8     9   ar
     9     9    10    1
    10     9    11   ar
    11    11    12   ar
    12    12    13   ar
    13    13    14   ar
    14    14    15    1
    15     7    16   ar
    16    16    17    1
    17    17    18    2
    18    17    19    1
    19    16    20   ar
    20    20    21    1
    21    21    22    1
    22    22    23   ar
    23    23    24   ar
    24    24    25   ar
    25    25    26    1
    26    26    27   ar
    27    27    28   ar
    28    28    29   ar
    29    29    30   ar
    30    30    31   ar
    31    31    32    1
    32    32    33   ar
    33    33    34   ar
    34    34    35   ar
    35    35    36   ar
    36    25    37   ar
    37    37    38   ar
    38    20     5   ar
    39    38    22   ar
    40    14     8   ar
    41    31    26   ar
    42    36    32   ar
    43     1    39    1
    44     1    40    1
    45     1    41    1
    46     2    42    1
    47     2    43    1
    48     3    44    1
    49     3    45    1
    50     4    46    1
    51     4    47    1
    52    11    48    1
    53    12    49    1
    54    13    50    1
    55    19    51    1
    56    21    52    1
    57    21    53    1
    58    23    54    1
    59    24    55    1
    60    27    56    1
    61    28    57    1
    62    29    58    1
    63    30    59    1
    64    36    60    1
    65    37    61    1
    66    38    62    1
