
     RDKit          3D

 63 65  0  0  0  0  0  0  0  0999 V2000
    3.9758    0.4217    0.2524 O   0  0  0  0  0  0  0  0  0  0  0  0
    3.9621    0.7131    1.4653 C   0  0  0  0  0  0  0  0  0  0  0  0
    3.1904   -0.1391    2.3341 N   0  0  0  0  0  0  0  0  0  0  0  0
    2.4663   -1.2739    1.8272 C   0  0  0  0  0  0  0  0  0  0  0  0
    1.4329   -0.8799    0.8230 C   0  0  0  0  0  0  0  0  0  0  0  0
    0.6868   -2.1203    0.3111 C   0  0  0  0  0  0  0  0  0  0  0  0
   -0.3587   -1.7121   -0.7021 C   0  0  0  0  0  0  0  0  0  0  0  0
   -1.1293   -2.8895   -1.2535 C   0  0  2  0  0  0  0  0  0  0  0  0
   -1.8406   -3.6434   -0.2829 N   0  0  0  0  0  0  0  0  0  0  0  0
   -3.5296   -3.6825   -0.4421 S   0  0  0  0  0  6  0  0  0  0  0  0
   -4.0755   -4.4928    0.7261 O   0  0  0  0  0  0  0  0  0  0  0  0
   -4.0002   -4.3602   -1.6802 O   0  0  0  0  0  0  0  0  0  0  0  0
   -4.1694   -2.0593   -0.2956 C   0  0  0  0  0  0  0  0  0  0  0  0
   -4.3750   -1.2305   -1.3815 C   0  0  0  0  0  0  0  0  0  0  0  0
   -4.8763    0.0458   -1.2508 C   0  0  0  0  0  0  0  0  0  0  0  0
   -5.2021    0.5678   -0.0171 C   0  0  0  0  0  0  0  0  0  0  0  0
   -5.7305    1.9189    0.1133 C   0  0  0  0  0  0  0  0  0  0  0  0
   -6.5058    2.4296   -0.9004 C   0  0  0  0  0  0  0  0  0  0  0  0
   -7.0345    3.7256   -0.8198 C   0  0  0  0  0  0  0  0  0  0  0  0
   -6.7813    4.5044    0.2812 C   0  0  0  0  0  0  0  0  0  0  0  0
   -7.5169    6.2826    0.3722 Br  0  0  0  0  0  0  0  0  0  0  0  0
   -6.0153    4.0095    1.2908 C   0  0  0  0  0  0  0  0  0  0  0  0
   -5.4906    2.7164    1.2050 C   0  0  0  0  0  0  0  0  0  0  0  0
   -5.0034   -0.2474    1.0848 C   0  0  0  0  0  0  0  0  0  0  0  0
   -4.5023   -1.5181    0.9347 C   0  0  0  0  0  0  0  0  0  0  0  0
   -0.2692   -3.7446   -2.1153 C   0  0  0  0  0  0  0  0  0  0  0  0
   -0.1684   -4.9741   -2.0160 O   0  0  0  0  0  0  0  0  0  0  0  0
    0.4725   -3.0995   -3.1040 O   0  0  0  0  0  0  0  0  0  0  0  0
    4.6483    1.7870    1.9286 O   0  0  0  0  0  0  0  0  0  0  0  0
    5.4087    2.6462    1.1596 C   0  0  0  0  0  0  0  0  0  0  0  0
    6.5389    2.0446    0.4312 C   0  0  0  0  0  0  0  0  0  0  0  0
    6.4715    1.6321   -0.8667 C   0  0  0  0  0  0  0  0  0  0  0  0
    7.5379    1.0588   -1.5199 C   0  0  0  0  0  0  0  0  0  0  0  0
    8.7357    0.8853   -0.8513 C   0  0  0  0  0  0  0  0  0  0  0  0
    8.8327    1.2937    0.4615 C   0  0  0  0  0  0  0  0  0  0  0  0
    7.7535    1.8641    1.0942 C   0  0  0  0  0  0  0  0  0  0  0  0
    3.1873    0.1172    3.3604 H   0  0  0  0  0  0  0  0  0  0  0  0
    1.9137   -1.7266    2.6953 H   0  0  0  0  0  0  0  0  0  0  0  0
    3.1789   -2.0305    1.4152 H   0  0  0  0  0  0  0  0  0  0  0  0
    1.8153   -0.3573   -0.0543 H   0  0  0  0  0  0  0  0  0  0  0  0
    0.6435   -0.2904    1.3654 H   0  0  0  0  0  0  0  0  0  0  0  0
    1.4416   -2.7942   -0.1074 H   0  0  0  0  0  0  0  0  0  0  0  0
    0.1795   -2.5331    1.2057 H   0  0  0  0  0  0  0  0  0  0  0  0
    0.1872   -1.1724   -1.5202 H   0  0  0  0  0  0  0  0  0  0  0  0
   -1.0585   -0.9596   -0.2854 H   0  0  0  0  0  0  0  0  0  0  0  0
   -1.8965   -2.4551   -1.9615 H   0  0  0  0  0  0  0  0  0  0  0  0
   -1.4890   -3.5315    0.6661 H   0  0  0  0  0  0  0  0  0  0  0  0
   -4.1152   -1.6524   -2.3592 H   0  0  0  0  0  0  0  0  0  0  0  0
   -5.0159    0.6486   -2.1375 H   0  0  0  0  0  0  0  0  0  0  0  0
   -6.6988    1.8179   -1.7537 H   0  0  0  0  0  0  0  0  0  0  0  0
   -7.6408    4.1007   -1.6321 H   0  0  0  0  0  0  0  0  0  0  0  0
   -5.8268    4.6437    2.1541 H   0  0  0  0  0  0  0  0  0  0  0  0
   -4.8871    2.3542    2.0227 H   0  0  0  0  0  0  0  0  0  0  0  0
   -5.2533    0.1498    2.0416 H   0  0  0  0  0  0  0  0  0  0  0  0
   -4.3408   -2.1729    1.7993 H   0  0  0  0  0  0  0  0  0  0  0  0
    1.2929   -3.5417   -3.5144 H   0  0  0  0  0  0  0  0  0  0  0  0
    5.8290    3.4405    1.8299 H   0  0  0  0  0  0  0  0  0  0  0  0
    4.7819    3.2244    0.4126 H   0  0  0  0  0  0  0  0  0  0  0  0
    5.5702    1.7449   -1.4598 H   0  0  0  0  0  0  0  0  0  0  0  0
    7.4931    0.7272   -2.5529 H   0  0  0  0  0  0  0  0  0  0  0  0
    9.5630    0.4376   -1.3662 H   0  0  0  0  0  0  0  0  0  0  0  0
    9.7889    1.1423    0.9562 H   0  0  0  0  0  0  0  0  0  0  0  0
    7.8175    2.1886    2.1244 H   0  0  0  0  0  0  0  0  0  0  0  0
  1  2  2  0
  2  3  1  0
  3  4  1  0
  4  5  1  0
  5  6  1  0
  6  7  1  0
  7  8  1  0
  8  9  1  0
  9 10  1  0
 10 11  2  0
 10 12  2  0
 10 13  1  0
 13 14  2  0
 14 15  1  0
 15 16  2  0
 16 17  1  0
 17 18  2  0
 18 19  1  0
 19 20  2  0
 20 21  1  0
 20 22  1  0
 22 23  2  0
 16 24  1  0
 24 25  2  0
  8 26  1  0
 26 27  2  0
 26 28  1  0
  2 29  1  0
 29 30  1  0
 30 31  1  0
 31 32  2  0
 32 33  1  0
 33 34  2  0
 34 35  1  0
 35 36  2  0
 25 13  1  0
 36 31  1  0
 23 17  1  0
  3 37  1  0
  4 38  1  0
  4 39  1  0
  5 40  1  0
  5 41  1  0
  6 42  1  0
  6 43  1  0
  7 44  1  0
  7 45  1  0
  8 46  1  6
  9 47  1  0
 14 48  1  0
 15 49  1  0
 18 50  1  0
 19 51  1  0
 22 52  1  0
 23 53  1  0
 24 54  1  0
 25 55  1  0
 28 56  1  0
 30 57  1  0
 30 58  1  0
 32 59  1  0
 33 60  1  0
 34 61  1  0
 35 62  1  0
 36 63  1  0
M  END
$$$$
