@<TRIPOS>MOLECULE
*****
 63 65 0 0 0
SMALL
GASTEIGER

@<TRIPOS>ATOM
      1 O           3.9758    0.4217    0.2524 O.2     1  UNL1       -0.2265
      2 C           3.9621    0.7131    1.4653 C.2     1  UNL1        0.4006
      3 N           3.1904   -0.1391    2.3341 N.am    1  UNL1       -0.2811
      4 C           2.4663   -1.2739    1.8272 C.3     1  UNL1        0.0147
      5 C           1.4329   -0.8799    0.8230 C.3     1  UNL1       -0.0372
      6 C           0.6868   -2.1203    0.3111 C.3     1  UNL1       -0.0497
      7 C          -0.3587   -1.7121   -0.7021 C.3     1  UNL1       -0.0256
      8 C          -1.1293   -2.8895   -1.2535 C.3     1  UNL1        0.1253
      9 N          -1.8406   -3.6434   -0.2829 N.3     1  UNL1       -0.1762
     10 S          -3.5296   -3.6825   -0.4421 S.O2    1  UNL1        0.0591
     11 O          -4.0755   -4.4928    0.7261 O.2     1  UNL1       -0.1530
     12 O          -4.0002   -4.3602   -1.6802 O.2     1  UNL1       -0.1530
     13 C          -4.1694   -2.0593   -0.2956 C.ar    1  UNL1        0.1053
     14 C          -4.3750   -1.2305   -1.3815 C.ar    1  UNL1       -0.0348
     15 C          -4.8763    0.0458   -1.2508 C.ar    1  UNL1       -0.0522
     16 C          -5.2021    0.5678   -0.0171 C.ar    1  UNL1       -0.0178
     17 C          -5.7305    1.9189    0.1133 C.ar    1  UNL1       -0.0178
     18 C          -6.5058    2.4296   -0.9004 C.ar    1  UNL1       -0.0530
     19 C          -7.0345    3.7256   -0.8198 C.ar    1  UNL1       -0.0472
     20 C          -6.7813    4.5044    0.2812 C.ar    1  UNL1        0.0179
     21 BR         -7.5169    6.2826    0.3722 Br      1  UNL1       -0.0503
     22 C          -6.0153    4.0095    1.2908 C.ar    1  UNL1       -0.0472
     23 C          -5.4906    2.7164    1.2050 C.ar    1  UNL1       -0.0530
     24 C          -5.0034   -0.2474    1.0848 C.ar    1  UNL1       -0.0522
     25 C          -4.5023   -1.5181    0.9347 C.ar    1  UNL1       -0.0348
     26 C          -0.2692   -3.7446   -2.1153 C.2     1  UNL1        0.3235
     27 O          -0.1684   -4.9741   -2.0160 O.2     1  UNL1       -0.2492
     28 O           0.4725   -3.0995   -3.1040 O.3     1  UNL1       -0.4795
     29 O           4.6483    1.7870    1.9286 O.3     1  UNL1       -0.4456
     30 C           5.4087    2.6462    1.1596 C.3     1  UNL1        0.1191
     31 C           6.5389    2.0446    0.4312 C.ar    1  UNL1       -0.0103
     32 C           6.4715    1.6321   -0.8667 C.ar    1  UNL1       -0.0554
     33 C           7.5379    1.0588   -1.5199 C.ar    1  UNL1       -0.0614
     34 C           8.7357    0.8853   -0.8513 C.ar    1  UNL1       -0.0617
     35 C           8.8327    1.2937    0.4615 C.ar    1  UNL1       -0.0614
     36 C           7.7535    1.8641    1.0942 C.ar    1  UNL1       -0.0554
     37 H           3.1873    0.1172    3.3604 H       1  UNL1        0.1520
     38 H           1.9137   -1.7266    2.6953 H       1  UNL1        0.0463
     39 H           3.1789   -2.0305    1.4152 H       1  UNL1        0.0463
     40 H           1.8153   -0.3573   -0.0543 H       1  UNL1        0.0280
     41 H           0.6435   -0.2904    1.3654 H       1  UNL1        0.0280
     42 H           1.4416   -2.7942   -0.1074 H       1  UNL1        0.0266
     43 H           0.1795   -2.5331    1.2057 H       1  UNL1        0.0266
     44 H           0.1872   -1.1724   -1.5202 H       1  UNL1        0.0286
     45 H          -1.0585   -0.9596   -0.2854 H       1  UNL1        0.0286
     46 H          -1.8965   -2.4551   -1.9615 H       1  UNL1        0.0592
     47 H          -1.4890   -3.5315    0.6661 H       1  UNL1        0.1489
     48 H          -4.1152   -1.6524   -2.3592 H       1  UNL1        0.0637
     49 H          -5.0159    0.6486   -2.1375 H       1  UNL1        0.0624
     50 H          -6.6988    1.8179   -1.7537 H       1  UNL1        0.0624
     51 H          -7.6408    4.1007   -1.6321 H       1  UNL1        0.0629
     52 H          -5.8268    4.6437    2.1541 H       1  UNL1        0.0629
     53 H          -4.8871    2.3542    2.0227 H       1  UNL1        0.0624
     54 H          -5.2533    0.1498    2.0416 H       1  UNL1        0.0624
     55 H          -4.3408   -2.1729    1.7993 H       1  UNL1        0.0637
     56 H           1.2929   -3.5417   -3.5144 H       1  UNL1        0.2951
     57 H           5.8290    3.4405    1.8299 H       1  UNL1        0.0749
     58 H           4.7819    3.2244    0.4126 H       1  UNL1        0.0749
     59 H           5.5702    1.7449   -1.4598 H       1  UNL1        0.0621
     60 H           7.4931    0.7272   -2.5529 H       1  UNL1        0.0618
     61 H           9.5630    0.4376   -1.3662 H       1  UNL1        0.0618
     62 H           9.7889    1.1423    0.9562 H       1  UNL1        0.0618
     63 H           7.8175    2.1886    2.1244 H       1  UNL1        0.0621
@<TRIPOS>BOND
     1     1     2    2
     2     2     3   am
     3     3     4    1
     4     4     5    1
     5     5     6    1
     6     6     7    1
     7     7     8    1
     8     8     9    1
     9     9    10    1
    10    10    11    2
    11    10    12    2
    12    10    13    1
    13    13    14   ar
    14    14    15   ar
    15    15    16   ar
    16    16    17    1
    17    17    18   ar
    18    18    19   ar
    19    19    20   ar
    20    20    21    1
    21    20    22   ar
    22    22    23   ar
    23    16    24   ar
    24    24    25   ar
    25     8    26    1
    26    26    27    2
    27    26    28    1
    28     2    29    1
    29    29    30    1
    30    30    31    1
    31    31    32   ar
    32    32    33   ar
    33    33    34   ar
    34    34    35   ar
    35    35    36   ar
    36    25    13   ar
    37    36    31   ar
    38    23    17   ar
    39     3    37    1
    40     4    38    1
    41     4    39    1
    42     5    40    1
    43     5    41    1
    44     6    42    1
    45     6    43    1
    46     7    44    1
    47     7    45    1
    48     8    46    1
    49     9    47    1
    50    14    48    1
    51    15    49    1
    52    18    50    1
    53    19    51    1
    54    22    52    1
    55    23    53    1
    56    24    54    1
    57    25    55    1
    58    28    56    1
    59    30    57    1
    60    30    58    1
    61    32    59    1
    62    33    60    1
    63    34    61    1
    64    35    62    1
    65    36    63    1
