@<TRIPOS>MOLECULE
*****
 48 51 0 0 0
SMALL
GASTEIGER

@<TRIPOS>ATOM
      1 C          -2.0067   -4.2749    1.7860 C.3     1  UNL1        0.0789
      2 O          -1.9961   -3.0386    1.1233 O.3     1  UNL1       -0.4929
      3 C          -0.8434   -2.5947    0.4569 C.ar    1  UNL1        0.1472
      4 C           0.2985   -3.3834    0.4509 C.ar    1  UNL1        0.0703
      5 N           1.4085   -2.9828   -0.1761 N.ar    1  UNL1       -0.2528
      6 C           1.4736   -1.8103   -0.8244 C.ar    1  UNL1        0.0793
      7 C           2.7045   -1.4134   -1.5317 C.3     1  UNL1        0.1314
      8 O           3.6184   -0.6676   -0.8845 O.3     1  UNL1       -0.4856
      9 C           3.7771    0.5121   -0.2805 C.ar    1  UNL1        0.1241
     10 C           2.8708    1.5273   -0.1063 C.ar    1  UNL1       -0.0170
     11 C           3.1291    2.7204    0.5364 C.ar    1  UNL1       -0.0230
     12 C           4.3826    2.9330    1.0503 C.ar    1  UNL1        0.1239
     13 F           4.6922    4.0852    1.6908 F       1  UNL1       -0.2055
     14 C           5.3304    1.9435    0.9016 C.ar    1  UNL1       -0.0201
     15 C           5.0575    0.7610    0.2591 C.ar    1  UNL1       -0.0061
     16 C           6.1415   -0.2493    0.1457 C.3     1  UNL1       -0.0362
     17 C           0.3593   -1.0260   -0.8274 C.ar    1  UNL1       -0.0244
     18 C          -0.8249   -1.3910   -0.1911 C.ar    1  UNL1        0.0433
     19 C          -1.9891   -0.4864   -0.2386 C.ar    1  UNL1        0.0510
     20 C          -3.2083   -0.6946    0.3267 C.ar    1  UNL1       -0.0239
     21 C          -4.0193    0.4107    0.0417 C.ar    1  UNL1        0.0578
     22 C          -3.2442    1.2605   -0.6998 C.ar    1  UNL1        0.0301
     23 N          -2.0125    0.7094   -0.8658 N.ar    1  UNL1       -0.3572
     24 C          -3.7775    2.5305   -1.1911 C.3     1  UNL1        0.0038
     25 C          -4.9487    3.0907   -0.4614 C.3     1  UNL1        0.0172
     26 N          -5.9002    2.0345   -0.0828 N.am    1  UNL1       -0.3109
     27 C          -5.3824    0.7839    0.3696 C.2     1  UNL1        0.2458
     28 O          -6.1096    0.0351    1.0379 O.2     1  UNL1       -0.2701
     29 H          -1.1183   -4.3504    2.4689 H       1  UNL1        0.0660
     30 H          -2.8867   -4.4160    2.4297 H       1  UNL1        0.0660
     31 H          -1.9641   -5.1056    1.0752 H       1  UNL1        0.0660
     32 H           0.2579   -4.3233    0.9660 H       1  UNL1        0.0867
     33 H           2.4212   -1.0115   -2.5517 H       1  UNL1        0.0763
     34 H           3.2069   -2.4020   -1.8176 H       1  UNL1        0.0763
     35 H           1.8772    1.4107   -0.4940 H       1  UNL1        0.0655
     36 H           2.3827    3.4986    0.6530 H       1  UNL1        0.0647
     37 H           6.3185    2.1267    1.3139 H       1  UNL1        0.0650
     38 H           7.1359    0.2023    0.0697 H       1  UNL1        0.0279
     39 H           5.9572   -0.8662   -0.7822 H       1  UNL1        0.0279
     40 H           6.0246   -0.9514    0.9989 H       1  UNL1        0.0279
     41 H           0.3781   -0.0970   -1.3513 H       1  UNL1        0.0644
     42 H          -3.5974   -1.5221    0.9116 H       1  UNL1        0.0646
     43 H          -1.2063    1.1200   -1.3846 H       1  UNL1        0.1656
     44 H          -4.1306    2.3325   -2.2477 H       1  UNL1        0.0343
     45 H          -2.9883    3.3181   -1.1938 H       1  UNL1        0.0343
     46 H          -4.6719    3.6799    0.4373 H       1  UNL1        0.0466
     47 H          -5.4737    3.7787   -1.1535 H       1  UNL1        0.0466
     48 H          -6.9042    2.2534   -0.1632 H       1  UNL1        0.1490
@<TRIPOS>BOND
     1     1     2    1
     2     2     3    1
     3     3     4   ar
     4     4     5   ar
     5     5     6   ar
     6     6     7    1
     7     7     8    1
     8     8     9    1
     9     9    10   ar
    10    10    11   ar
    11    11    12   ar
    12    12    13    1
    13    12    14   ar
    14    14    15   ar
    15    15    16    1
    16     6    17   ar
    17    17    18   ar
    18    18    19    1
    19    19    20   ar
    20    20    21   ar
    21    21    22   ar
    22    22    23   ar
    23    22    24    1
    24    24    25    1
    25    25    26    1
    26    26    27   am
    27    27    28    2
    28    18     3   ar
    29    23    19   ar
    30    15     9   ar
    31    27    21    1
    32     1    29    1
    33     1    30    1
    34     1    31    1
    35     4    32    1
    36     7    33    1
    37     7    34    1
    38    10    35    1
    39    11    36    1
    40    14    37    1
    41    16    38    1
    42    16    39    1
    43    16    40    1
    44    17    41    1
    45    20    42    1
    46    23    43    1
    47    24    44    1
    48    24    45    1
    49    25    46    1
    50    25    47    1
    51    26    48    1
