
     RDKit          3D

 55 57  0  0  0  0  0  0  0  0999 V2000
    2.4432   -1.5429   -0.1514 C   0  0  1  0  0  0  0  0  0  0  0  0
    1.9432   -2.5077   -1.0138 O   0  0  0  0  0  0  0  0  0  0  0  0
    3.9116   -1.2730   -0.3912 C   0  0  0  0  0  0  0  0  0  0  0  0
    4.4086   -0.2722    0.6015 C   0  0  2  0  0  0  0  0  0  0  0  0
    3.5609    0.9684    0.7087 C   0  0  0  0  0  0  0  0  0  0  0  0
    2.1326    0.5528    1.0044 C   0  0  0  0  0  0  0  0  0  0  0  0
    1.7047   -0.2481   -0.2332 C   0  0  2  0  0  0  0  0  0  0  0  0
    0.2436   -0.3560   -0.2736 C   0  0  0  0  0  0  0  0  0  0  0  0
   -0.4278    0.2652   -1.3075 C   0  0  0  0  0  0  0  0  0  0  0  0
   -1.8139    0.1969   -1.3977 C   0  0  0  0  0  0  0  0  0  0  0  0
   -2.5647   -0.4793   -0.4788 C   0  0  0  0  0  0  0  0  0  0  0  0
   -1.8707   -1.0812    0.5290 C   0  0  0  0  0  0  0  0  0  0  0  0
   -0.4842   -1.0383    0.6575 C   0  0  0  0  0  0  0  0  0  0  0  0
   -4.0040   -0.5140   -0.6273 C   0  0  0  0  0  0  0  0  0  0  0  0
   -4.4837    0.1080   -1.6355 O   0  0  0  0  0  0  0  0  0  0  0  0
   -4.8905   -1.1815    0.2592 N   0  0  0  0  0  0  0  0  0  0  0  0
   -6.3318   -1.2172    0.1128 C   0  0  0  0  0  0  0  0  0  0  0  0
   -6.8669    0.1995    0.1540 C   0  0  0  0  0  0  0  0  0  0  0  0
   -8.3763    0.2185    0.0051 C   0  0  0  0  0  0  0  0  0  0  0  0
   -8.7858    1.6475    0.0596 C   0  0  0  0  0  0  0  0  0  0  0  0
   -7.8798    2.6960    0.2197 O   0  0  0  0  0  0  0  0  0  0  0  0
   -9.9691    2.0656   -0.0303 O   0  0  0  0  0  0  0  0  0  0  0  0
    5.7779    0.2071    0.2155 C   0  0  0  0  0  0  0  0  0  0  0  0
    5.8187    0.8644   -1.0082 C   0  0  0  0  0  0  0  0  0  0  0  0
    7.0377    1.3475   -1.4582 C   0  0  0  0  0  0  0  0  0  0  0  0
    8.1537    1.1697   -0.7011 C   0  0  0  0  0  0  0  0  0  0  0  0
    8.1349    0.5124    0.5309 C   0  0  0  0  0  0  0  0  0  0  0  0
    6.9270    0.0417    0.9617 C   0  0  0  0  0  0  0  0  0  0  0  0
    2.3331   -1.9612    0.8754 H   0  0  0  0  0  0  0  0  0  0  0  0
    1.9897   -2.2635   -1.9602 H   0  0  0  0  0  0  0  0  0  0  0  0
    4.0111   -0.9575   -1.4362 H   0  0  0  0  0  0  0  0  0  0  0  0
    4.5005   -2.2074   -0.2147 H   0  0  0  0  0  0  0  0  0  0  0  0
    4.4779   -0.7852    1.5945 H   0  0  0  0  0  0  0  0  0  0  0  0
    3.5326    1.4329   -0.3103 H   0  0  0  0  0  0  0  0  0  0  0  0
    4.0021    1.6227    1.4614 H   0  0  0  0  0  0  0  0  0  0  0  0
    2.1427   -0.1813    1.8382 H   0  0  0  0  0  0  0  0  0  0  0  0
    1.4721    1.3983    1.1878 H   0  0  0  0  0  0  0  0  0  0  0  0
    2.0623    0.3549   -1.0962 H   0  0  0  0  0  0  0  0  0  0  0  0
    0.1366    0.8175   -2.0648 H   0  0  0  0  0  0  0  0  0  0  0  0
   -2.2592    0.7206   -2.2524 H   0  0  0  0  0  0  0  0  0  0  0  0
   -2.4064   -1.6330    1.2896 H   0  0  0  0  0  0  0  0  0  0  0  0
    0.0202   -1.5393    1.4863 H   0  0  0  0  0  0  0  0  0  0  0  0
   -4.4284   -1.6654    1.0555 H   0  0  0  0  0  0  0  0  0  0  0  0
   -6.7648   -1.7854    0.9393 H   0  0  0  0  0  0  0  0  0  0  0  0
   -6.6292   -1.7077   -0.8505 H   0  0  0  0  0  0  0  0  0  0  0  0
   -6.4679    0.8390   -0.6520 H   0  0  0  0  0  0  0  0  0  0  0  0
   -6.6612    0.6305    1.1539 H   0  0  0  0  0  0  0  0  0  0  0  0
   -8.8257   -0.3060    0.8484 H   0  0  0  0  0  0  0  0  0  0  0  0
   -8.7145   -0.1790   -0.9778 H   0  0  0  0  0  0  0  0  0  0  0  0
   -8.0366    3.6357   -0.0698 H   0  0  0  0  0  0  0  0  0  0  0  0
    4.9946    1.0570   -1.6828 H   0  0  0  0  0  0  0  0  0  0  0  0
    7.1357    1.8696   -2.4055 H   0  0  0  0  0  0  0  0  0  0  0  0
    9.1031    1.5531   -1.0650 H   0  0  0  0  0  0  0  0  0  0  0  0
    9.0297    0.3750    1.1281 H   0  0  0  0  0  0  0  0  0  0  0  0
    6.8008   -0.4846    1.9061 H   0  0  0  0  0  0  0  0  0  0  0  0
  1  2  1  0
  1  3  1  0
  3  4  1  0
  4  5  1  0
  5  6  1  0
  6  7  1  0
  7  8  1  0
  8  9  2  0
  9 10  1  0
 10 11  2  0
 11 12  1  0
 12 13  2  0
 11 14  1  0
 14 15  2  0
 14 16  1  0
 16 17  1  0
 17 18  1  0
 18 19  1  0
 19 20  1  0
 20 21  1  0
 20 22  2  0
  4 23  1  0
 23 24  2  0
 24 25  1  0
 25 26  2  0
 26 27  1  0
 27 28  2  0
  7  1  1  0
 13  8  1  0
 28 23  1  0
  1 29  1  1
  2 30  1  0
  3 31  1  0
  3 32  1  0
  4 33  1  1
  5 34  1  0
  5 35  1  0
  6 36  1  0
  6 37  1  0
  7 38  1  6
  9 39  1  0
 10 40  1  0
 12 41  1  0
 13 42  1  0
 16 43  1  0
 17 44  1  0
 17 45  1  0
 18 46  1  0
 18 47  1  0
 19 48  1  0
 19 49  1  0
 21 50  1  0
 24 51  1  0
 25 52  1  0
 26 53  1  0
 27 54  1  0
 28 55  1  0
M  END
$$$$
