@<TRIPOS>MOLECULE
*****
 55 57 0 0 0
SMALL
GASTEIGER

@<TRIPOS>ATOM
      1 C           2.4432   -1.5429   -0.1514 C.3     1  UNL1        0.0626
      2 O           1.9432   -2.5077   -1.0138 O.3     1  UNL1       -0.3912
      3 C           3.9116   -1.2730   -0.3912 C.3     1  UNL1       -0.0195
      4 C           4.4086   -0.2722    0.6015 C.3     1  UNL1       -0.0135
      5 C           3.5609    0.9684    0.7087 C.3     1  UNL1       -0.0455
      6 C           2.1326    0.5528    1.0044 C.3     1  UNL1       -0.0433
      7 C           1.7047   -0.2481   -0.2332 C.3     1  UNL1        0.0102
      8 C           0.2436   -0.3560   -0.2736 C.ar    1  UNL1       -0.0418
      9 C          -0.4278    0.2652   -1.3075 C.ar    1  UNL1       -0.0575
     10 C          -1.8139    0.1969   -1.3977 C.ar    1  UNL1       -0.0494
     11 C          -2.5647   -0.4793   -0.4788 C.ar    1  UNL1        0.0367
     12 C          -1.8707   -1.0812    0.5290 C.ar    1  UNL1       -0.0494
     13 C          -0.4842   -1.0383    0.6575 C.ar    1  UNL1       -0.0575
     14 C          -4.0040   -0.5140   -0.6273 C.2     1  UNL1        0.2441
     15 O          -4.4837    0.1080   -1.6355 O.2     1  UNL1       -0.2702
     16 N          -4.8905   -1.1815    0.2592 N.am    1  UNL1       -0.3113
     17 C          -6.3318   -1.2172    0.1128 C.3     1  UNL1        0.0124
     18 C          -6.8669    0.1995    0.1540 C.3     1  UNL1       -0.0273
     19 C          -8.3763    0.2185    0.0051 C.3     1  UNL1        0.0462
     20 C          -8.7858    1.6475    0.0596 C.2     1  UNL1        0.3047
     21 O          -7.8798    2.6960    0.2197 O.3     1  UNL1       -0.4806
     22 O          -9.9691    2.0656   -0.0303 O.2     1  UNL1       -0.2510
     23 C           5.7779    0.2071    0.2155 C.ar    1  UNL1       -0.0442
     24 C           5.8187    0.8644   -1.0082 C.ar    1  UNL1       -0.0583
     25 C           7.0377    1.3475   -1.4582 C.ar    1  UNL1       -0.0615
     26 C           8.1537    1.1697   -0.7011 C.ar    1  UNL1       -0.0617
     27 C           8.1349    0.5124    0.5309 C.ar    1  UNL1       -0.0615
     28 C           6.9270    0.0417    0.9617 C.ar    1  UNL1       -0.0583
     29 H           2.3331   -1.9612    0.8754 H       1  UNL1        0.0599
     30 H           1.9897   -2.2635   -1.9602 H       1  UNL1        0.2098
     31 H           4.0111   -0.9575   -1.4362 H       1  UNL1        0.0296
     32 H           4.5005   -2.2074   -0.2147 H       1  UNL1        0.0296
     33 H           4.4779   -0.7852    1.5945 H       1  UNL1        0.0350
     34 H           3.5326    1.4329   -0.3103 H       1  UNL1        0.0271
     35 H           4.0021    1.6227    1.4614 H       1  UNL1        0.0271
     36 H           2.1427   -0.1813    1.8382 H       1  UNL1        0.0272
     37 H           1.4721    1.3983    1.1878 H       1  UNL1        0.0272
     38 H           2.0623    0.3549   -1.0962 H       1  UNL1        0.0374
     39 H           0.1366    0.8175   -2.0648 H       1  UNL1        0.0621
     40 H          -2.2592    0.7206   -2.2524 H       1  UNL1        0.0625
     41 H          -2.4064   -1.6330    1.2896 H       1  UNL1        0.0625
     42 H           0.0202   -1.5393    1.4863 H       1  UNL1        0.0621
     43 H          -4.4284   -1.6654    1.0555 H       1  UNL1        0.1490
     44 H          -6.7648   -1.7854    0.9393 H       1  UNL1        0.0462
     45 H          -6.6292   -1.7077   -0.8505 H       1  UNL1        0.0462
     46 H          -6.4679    0.8390   -0.6520 H       1  UNL1        0.0285
     47 H          -6.6612    0.6305    1.1539 H       1  UNL1        0.0285
     48 H          -8.8257   -0.3060    0.8484 H       1  UNL1        0.0378
     49 H          -8.7145   -0.1790   -0.9778 H       1  UNL1        0.0378
     50 H          -8.0366    3.6357   -0.0698 H       1  UNL1        0.2951
     51 H           4.9946    1.0570   -1.6828 H       1  UNL1        0.0620
     52 H           7.1357    1.8696   -2.4055 H       1  UNL1        0.0618
     53 H           9.1031    1.5531   -1.0650 H       1  UNL1        0.0618
     54 H           9.0297    0.3750    1.1281 H       1  UNL1        0.0618
     55 H           6.8008   -0.4846    1.9061 H       1  UNL1        0.0620
@<TRIPOS>BOND
     1     1     2    1
     2     1     3    1
     3     3     4    1
     4     4     5    1
     5     5     6    1
     6     6     7    1
     7     7     8    1
     8     8     9   ar
     9     9    10   ar
    10    10    11   ar
    11    11    12   ar
    12    12    13   ar
    13    11    14    1
    14    14    15    2
    15    14    16   am
    16    16    17    1
    17    17    18    1
    18    18    19    1
    19    19    20    1
    20    20    21    1
    21    20    22    2
    22     4    23    1
    23    23    24   ar
    24    24    25   ar
    25    25    26   ar
    26    26    27   ar
    27    27    28   ar
    28     7     1    1
    29    13     8   ar
    30    28    23   ar
    31     1    29    1
    32     2    30    1
    33     3    31    1
    34     3    32    1
    35     4    33    1
    36     5    34    1
    37     5    35    1
    38     6    36    1
    39     6    37    1
    40     7    38    1
    41     9    39    1
    42    10    40    1
    43    12    41    1
    44    13    42    1
    45    16    43    1
    46    17    44    1
    47    17    45    1
    48    18    46    1
    49    18    47    1
    50    19    48    1
    51    19    49    1
    52    21    50    1
    53    24    51    1
    54    25    52    1
    55    26    53    1
    56    27    54    1
    57    28    55    1
