@<TRIPOS>MOLECULE
*****
 43 44 0 0 0
SMALL
GASTEIGER

@<TRIPOS>ATOM
      1 O           1.7640   -0.1897   -2.0679 O.2     1  UNL1       -0.1498
      2 S           2.3261    0.5924   -0.9111 S.O2    1  UNL1        0.0750
      3 O           3.0763    1.8101   -1.4040 O.2     1  UNL1       -0.1498
      4 C           3.5193   -0.4285   -0.1243 C.ar    1  UNL1        0.1087
      5 C           3.3568   -1.7976   -0.1144 C.ar    1  UNL1       -0.0351
      6 C           4.2839   -2.6370    0.5004 C.ar    1  UNL1       -0.0599
      7 C           5.4008   -2.1207    1.1226 C.ar    1  UNL1       -0.0616
      8 C           5.5598   -0.7516    1.1105 C.ar    1  UNL1       -0.0599
      9 C           4.6379    0.0837    0.4991 C.ar    1  UNL1       -0.0351
     10 N           1.0899    1.0594    0.1865 N.pl3   1  UNL1       -0.1944
     11 C           1.4658    1.8388    1.3450 C.3     1  UNL1        0.1300
     12 C           1.4110    3.3232    1.1268 C.3     1  UNL1        0.4069
     13 F           1.8031    3.9005    2.3433 F       1  UNL1       -0.1689
     14 F           0.1541    3.7869    0.8728 F       1  UNL1       -0.1689
     15 F           2.3462    3.7106    0.1887 F       1  UNL1       -0.1689
     16 C          -0.2434    0.6546   -0.0977 C.ar    1  UNL1        0.0516
     17 C          -1.1074    1.4239   -0.8552 C.ar    1  UNL1       -0.0387
     18 C          -2.3982    1.0218   -1.1256 C.ar    1  UNL1       -0.0535
     19 C          -2.8747   -0.1733   -0.6443 C.ar    1  UNL1        0.0016
     20 C          -4.2387   -0.5906   -0.9291 C.3     1  UNL1        0.2815
     21 O          -4.3769   -0.6588   -2.3321 O.3     1  UNL1       -0.3692
     22 C          -4.5922   -1.9466   -0.3715 C.3     1  UNL1        0.4311
     23 F          -3.7424   -2.9140   -0.9232 F       1  UNL1       -0.1669
     24 F          -4.5573   -1.9767    0.9998 F       1  UNL1       -0.1669
     25 F          -5.8687   -2.3345   -0.7454 F       1  UNL1       -0.1669
     26 C          -5.3020    0.3745   -0.4547 C.3     1  UNL1        0.4311
     27 F          -6.5265   -0.2045   -0.8194 F       1  UNL1       -0.1669
     28 F          -5.2672    1.5874   -1.1149 F       1  UNL1       -0.1669
     29 F          -5.3267    0.5194    0.9073 F       1  UNL1       -0.1669
     30 C          -2.0417   -0.9620    0.1122 C.ar    1  UNL1       -0.0535
     31 C          -0.7320   -0.5476    0.3829 C.ar    1  UNL1       -0.0387
     32 H           2.4830   -2.2076   -0.6006 H       1  UNL1        0.0637
     33 H           4.1614   -3.7136    0.5114 H       1  UNL1        0.0618
     34 H           6.1277   -2.7802    1.6047 H       1  UNL1        0.0618
     35 H           6.4518   -0.3517    1.6083 H       1  UNL1        0.0618
     36 H           4.7789    1.1666    0.4986 H       1  UNL1        0.0637
     37 H           2.5172    1.5758    1.6295 H       1  UNL1        0.0571
     38 H           0.8383    1.4990    2.1813 H       1  UNL1        0.0571
     39 H          -0.7384    2.3615   -1.2352 H       1  UNL1        0.0637
     40 H          -3.0619    1.6294   -1.7177 H       1  UNL1        0.0622
     41 H          -4.1564   -1.5749   -2.6431 H       1  UNL1        0.2112
     42 H          -2.3142   -1.9050    0.5336 H       1  UNL1        0.0622
     43 H          -0.0862   -1.1532    0.9660 H       1  UNL1        0.0637
@<TRIPOS>BOND
     1     1     2    2
     2     2     3    2
     3     2     4    1
     4     4     5   ar
     5     5     6   ar
     6     6     7   ar
     7     7     8   ar
     8     8     9   ar
     9     2    10    1
    10    10    11    1
    11    11    12    1
    12    12    13    1
    13    12    14    1
    14    12    15    1
    15    10    16    1
    16    16    17   ar
    17    17    18   ar
    18    18    19   ar
    19    19    20    1
    20    20    21    1
    21    20    22    1
    22    22    23    1
    23    22    24    1
    24    22    25    1
    25    20    26    1
    26    26    27    1
    27    26    28    1
    28    26    29    1
    29    19    30   ar
    30    30    31   ar
    31     9     4   ar
    32    31    16   ar
    33     5    32    1
    34     6    33    1
    35     7    34    1
    36     8    35    1
    37     9    36    1
    38    11    37    1
    39    11    38    1
    40    17    39    1
    41    18    40    1
    42    21    41    1
    43    30    42    1
    44    31    43    1
