@<TRIPOS>MOLECULE
*****
 11 10 0 0 0
SMALL
GASTEIGER

@<TRIPOS>ATOM
      1 N          -1.3803   -0.4531    0.2717 N.3     1  GLY1       -0.3279
      2 CA         -0.4676    0.6347    0.0796 C.3     1  GLY1        0.0164
      3 C           0.8992    0.3027    0.6552 C.3     1  GLY1        0.0565
      4 O           1.4753   -0.8064    0.0792 O.3     1  GLY1       -0.3938
      5 H1         -2.1151   -0.5221   -0.4752 H       1  GLY1        0.1183
      6 H2         -0.9148   -1.3735    0.4792 H       1  GLY1        0.1183
      7 HA1        -0.3987    0.9943   -0.9647 H       1  GLY1        0.0444
      8 HA2        -0.8431    1.4914    0.6849 H       1  GLY1        0.0444
      9 H1          1.5797    1.1638    0.5016 H       1  GLY1        0.0570
     10 H2          0.7858    0.1853    1.7486 H       1  GLY1        0.0570
     11 H           1.3796   -1.6173    0.6496 H       1  GLY1        0.2095
@<TRIPOS>BOND
     1     1     2    1
     2     2     3    1
     3     3     4    1
     4     1     5    1
     5     1     6    1
     6     2     7    1
     7     2     8    1
     8     3     9    1
     9     3    10    1
    10     4    11    1
