
     RDKit          3D

 51 55  0  0  0  0  0  0  0  0999 V2000
   -5.4234    2.5329    0.2501 C   0  0  0  0  0  0  0  0  0  0  0  0
   -4.2186    1.7195    0.3072 N   0  0  0  0  0  0  0  0  0  0  0  0
   -4.0815    1.0099   -0.8948 C   0  0  0  0  0  0  0  0  0  0  0  0
   -3.2643   -0.2260   -0.8890 C   0  0  0  0  0  0  0  0  0  0  0  0
   -3.5056   -1.0358   -1.9873 C   0  0  0  0  0  0  0  0  0  0  0  0
   -2.8673   -2.2524   -2.1348 C   0  0  0  0  0  0  0  0  0  0  0  0
   -3.1980   -3.2517   -3.5439 Cl  0  0  0  0  0  0  0  0  0  0  0  0
   -1.9551   -2.6931   -1.1626 C   0  0  0  0  0  0  0  0  0  0  0  0
   -1.6875   -1.9174   -0.0537 C   0  0  0  0  0  0  0  0  0  0  0  0
   -2.3490   -0.7303    0.0239 C   0  0  0  0  0  0  0  0  0  0  0  0
   -1.9604   -0.0084    1.2002 N   0  0  0  0  0  0  0  0  0  0  0  0
   -2.7965    0.7695    1.9769 C   0  0  0  0  0  0  0  0  0  0  0  0
   -2.0827    1.2076    2.9674 N   0  0  0  0  0  0  0  0  0  0  0  0
   -0.8486    0.7427    2.8375 N   0  0  0  0  0  0  0  0  0  0  0  0
   -0.7416   -0.0406    1.7054 C   0  0  0  0  0  0  0  0  0  0  0  0
    0.4729   -0.6574    1.1656 C   0  0  0  0  0  0  0  0  0  0  0  0
    1.6147    0.1103    1.9217 C   0  0  0  0  0  0  0  0  0  0  0  0
    2.8954   -0.6359    1.5131 C   0  0  0  0  0  0  0  0  0  0  0  0
    3.1772   -0.0863    0.2125 N   0  0  0  0  0  0  0  0  0  0  0  0
    4.4807   -0.0454   -0.2839 C   0  0  0  0  0  0  0  0  0  0  0  0
    4.8413    0.5497   -1.4643 C   0  0  0  0  0  0  0  0  0  0  0  0
    6.1563    0.5660   -1.9288 C   0  0  0  0  0  0  0  0  0  0  0  0
    7.1483   -0.0238   -1.2055 C   0  0  0  0  0  0  0  0  0  0  0  0
    6.7755   -0.6213   -0.0165 C   0  0  0  0  0  0  0  0  0  0  0  0
    5.5064   -0.6295    0.4182 N   0  0  0  0  0  0  0  0  0  0  0  0
    2.0604    0.4048   -0.5238 C   0  0  0  0  0  0  0  0  0  0  0  0
    0.7885   -0.3876   -0.2694 C   0  0  0  0  0  0  0  0  0  0  0  0
   -4.2251    1.0215    1.5619 C   0  0  0  0  0  0  0  0  0  0  0  0
   -5.8532    2.7124    1.2679 H   0  0  0  0  0  0  0  0  0  0  0  0
   -5.2398    3.5077   -0.2457 H   0  0  0  0  0  0  0  0  0  0  0  0
   -6.2340    2.0373   -0.3328 H   0  0  0  0  0  0  0  0  0  0  0  0
   -5.0631    0.8458   -1.4073 H   0  0  0  0  0  0  0  0  0  0  0  0
   -3.5330    1.7044   -1.6112 H   0  0  0  0  0  0  0  0  0  0  0  0
   -4.2209   -0.6812   -2.7389 H   0  0  0  0  0  0  0  0  0  0  0  0
   -1.4761   -3.6441   -1.3069 H   0  0  0  0  0  0  0  0  0  0  0  0
   -1.0685   -2.2589    0.7041 H   0  0  0  0  0  0  0  0  0  0  0  0
    0.7538   -1.6607    1.5104 H   0  0  0  0  0  0  0  0  0  0  0  0
    1.4391   -0.0934    2.9741 H   0  0  0  0  0  0  0  0  0  0  0  0
    1.6192    1.1458    1.5944 H   0  0  0  0  0  0  0  0  0  0  0  0
    2.6630   -1.7275    1.4280 H   0  0  0  0  0  0  0  0  0  0  0  0
    3.6672   -0.4911    2.2637 H   0  0  0  0  0  0  0  0  0  0  0  0
    4.0640    1.0295   -2.0557 H   0  0  0  0  0  0  0  0  0  0  0  0
    6.3557    1.0614   -2.8783 H   0  0  0  0  0  0  0  0  0  0  0  0
    8.1626   -0.0268   -1.5360 H   0  0  0  0  0  0  0  0  0  0  0  0
    7.5641   -1.0977    0.5722 H   0  0  0  0  0  0  0  0  0  0  0  0
    1.8846    1.4993   -0.3908 H   0  0  0  0  0  0  0  0  0  0  0  0
    2.2673    0.2806   -1.6074 H   0  0  0  0  0  0  0  0  0  0  0  0
    0.9425   -1.3402   -0.8590 H   0  0  0  0  0  0  0  0  0  0  0  0
    0.0071    0.2142   -0.7792 H   0  0  0  0  0  0  0  0  0  0  0  0
   -4.6744    0.0146    1.3721 H   0  0  0  0  0  0  0  0  0  0  0  0
   -4.7399    1.5774    2.3589 H   0  0  0  0  0  0  0  0  0  0  0  0
  1  2  1  0
  2  3  1  0
  3  4  1  0
  4  5  2  0
  5  6  1  0
  6  7  1  0
  6  8  2  0
  8  9  1  0
  9 10  2  0
 10 11  1  0
 11 12  1  0
 12 13  2  0
 13 14  1  0
 14 15  2  0
 15 16  1  0
 16 17  1  0
 17 18  1  0
 18 19  1  0
 19 20  1  0
 20 21  2  0
 21 22  1  0
 22 23  2  0
 23 24  1  0
 24 25  2  0
 19 26  1  0
 26 27  1  0
 12 28  1  0
 28  2  1  0
 10  4  1  0
 15 11  1  0
 27 16  1  0
 25 20  1  0
  1 29  1  0
  1 30  1  0
  1 31  1  0
  3 32  1  0
  3 33  1  0
  5 34  1  0
  8 35  1  0
  9 36  1  0
 16 37  1  0
 17 38  1  0
 17 39  1  0
 18 40  1  0
 18 41  1  0
 21 42  1  0
 22 43  1  0
 23 44  1  0
 24 45  1  0
 26 46  1  0
 26 47  1  0
 27 48  1  0
 27 49  1  0
 28 50  1  0
 28 51  1  0
M  END
$$$$
