@<TRIPOS>MOLECULE
*****
 51 55 0 0 0
SMALL
GASTEIGER

@<TRIPOS>ATOM
      1 C          -5.4234    2.5329    0.2501 C.3     1  UNL1       -0.0120
      2 N          -4.2186    1.7195    0.3072 N.3     1  UNL1       -0.2940
      3 C          -4.0815    1.0099   -0.8948 C.3     1  UNL1        0.0262
      4 C          -3.2643   -0.2260   -0.8890 C.ar    1  UNL1       -0.0081
      5 C          -3.5056   -1.0358   -1.9873 C.ar    1  UNL1       -0.0370
      6 C          -2.8673   -2.2524   -2.1348 C.ar    1  UNL1        0.0414
      7 CL         -3.1980   -3.2517   -3.5439 Cl      1  UNL1       -0.0835
      8 C          -1.9551   -2.6931   -1.1626 C.ar    1  UNL1       -0.0414
      9 C          -1.6875   -1.9174   -0.0537 C.ar    1  UNL1       -0.0361
     10 C          -2.3490   -0.7303    0.0239 C.ar    1  UNL1        0.0539
     11 N          -1.9604   -0.0084    1.2002 N.ar    1  UNL1       -0.2814
     12 C          -2.7965    0.7695    1.9769 C.ar    1  UNL1        0.1521
     13 N          -2.0827    1.2076    2.9674 N.ar    1  UNL1       -0.1327
     14 N          -0.8486    0.7427    2.8375 N.ar    1  UNL1       -0.1337
     15 C          -0.7416   -0.0406    1.7054 C.ar    1  UNL1        0.1412
     16 C           0.4729   -0.6574    1.1656 C.3     1  UNL1        0.0223
     17 C           1.6147    0.1103    1.9217 C.3     1  UNL1       -0.0274
     18 C           2.8954   -0.6359    1.5131 C.3     1  UNL1        0.0141
     19 N           3.1772   -0.0863    0.2125 N.pl3   1  UNL1       -0.3151
     20 C           4.4807   -0.0454   -0.2839 C.ar    1  UNL1        0.1212
     21 C           4.8413    0.5497   -1.4643 C.ar    1  UNL1       -0.0217
     22 C           6.1563    0.5660   -1.9288 C.ar    1  UNL1       -0.0571
     23 C           7.1483   -0.0238   -1.2055 C.ar    1  UNL1       -0.0435
     24 C           6.7755   -0.6213   -0.0165 C.ar    1  UNL1        0.0297
     25 N           5.5064   -0.6295    0.4182 N.ar    1  UNL1       -0.2403
     26 C           2.0604    0.4048   -0.5238 C.3     1  UNL1        0.0141
     27 C           0.7885   -0.3876   -0.2694 C.3     1  UNL1       -0.0274
     28 C          -4.2251    1.0215    1.5619 C.3     1  UNL1        0.0594
     29 H          -5.8532    2.7124    1.2679 H       1  UNL1        0.0391
     30 H          -5.2398    3.5077   -0.2457 H       1  UNL1        0.0391
     31 H          -6.2340    2.0373   -0.3328 H       1  UNL1        0.0391
     32 H          -5.0631    0.8458   -1.4073 H       1  UNL1        0.0476
     33 H          -3.5330    1.7044   -1.6112 H       1  UNL1        0.0476
     34 H          -4.2209   -0.6812   -2.7389 H       1  UNL1        0.0636
     35 H          -1.4761   -3.6441   -1.3069 H       1  UNL1        0.0633
     36 H          -1.0685   -2.2589    0.7041 H       1  UNL1        0.0639
     37 H           0.7538   -1.6607    1.5104 H       1  UNL1        0.0381
     38 H           1.4391   -0.0934    2.9741 H       1  UNL1        0.0287
     39 H           1.6192    1.1458    1.5944 H       1  UNL1        0.0287
     40 H           2.6630   -1.7275    1.4280 H       1  UNL1        0.0464
     41 H           3.6672   -0.4911    2.2637 H       1  UNL1        0.0464
     42 H           4.0640    1.0295   -2.0557 H       1  UNL1        0.0652
     43 H           6.3557    1.0614   -2.8783 H       1  UNL1        0.0619
     44 H           8.1626   -0.0268   -1.5360 H       1  UNL1        0.0633
     45 H           7.5641   -1.0977    0.5722 H       1  UNL1        0.0830
     46 H           1.8846    1.4993   -0.3908 H       1  UNL1        0.0464
     47 H           2.2673    0.2806   -1.6074 H       1  UNL1        0.0464
     48 H           0.9425   -1.3402   -0.8590 H       1  UNL1        0.0287
     49 H           0.0071    0.2142   -0.7792 H       1  UNL1        0.0287
     50 H          -4.6744    0.0146    1.3721 H       1  UNL1        0.0507
     51 H          -4.7399    1.5774    2.3589 H       1  UNL1        0.0507
@<TRIPOS>BOND
     1     1     2    1
     2     2     3    1
     3     3     4    1
     4     4     5   ar
     5     5     6   ar
     6     6     7    1
     7     6     8   ar
     8     8     9   ar
     9     9    10   ar
    10    10    11    1
    11    11    12   ar
    12    12    13   ar
    13    13    14   ar
    14    14    15   ar
    15    15    16    1
    16    16    17    1
    17    17    18    1
    18    18    19    1
    19    19    20    1
    20    20    21   ar
    21    21    22   ar
    22    22    23   ar
    23    23    24   ar
    24    24    25   ar
    25    19    26    1
    26    26    27    1
    27    12    28    1
    28    28     2    1
    29    10     4   ar
    30    15    11   ar
    31    27    16    1
    32    25    20   ar
    33     1    29    1
    34     1    30    1
    35     1    31    1
    36     3    32    1
    37     3    33    1
    38     5    34    1
    39     8    35    1
    40     9    36    1
    41    16    37    1
    42    17    38    1
    43    17    39    1
    44    18    40    1
    45    18    41    1
    46    21    42    1
    47    22    43    1
    48    23    44    1
    49    24    45    1
    50    26    46    1
    51    26    47    1
    52    27    48    1
    53    27    49    1
    54    28    50    1
    55    28    51    1
