@<TRIPOS>MOLECULE
*****
 53 55 0 0 0
SMALL
GASTEIGER

@<TRIPOS>ATOM
      1 C           8.1980   -1.7881    1.4755 C.3     1  UNL1        0.0805
      2 O           7.6028   -0.6116    1.9910 O.3     1  UNL1       -0.4786
      3 C           6.3140   -0.3167    1.5609 C.ar    1  UNL1        0.2334
      4 C           5.7044    0.8198    2.0419 C.ar    1  UNL1        0.0899
      5 N           4.4638    1.1440    1.6545 N.ar    1  UNL1       -0.2433
      6 C           3.7372    0.3817    0.7732 C.ar    1  UNL1        0.1468
      7 C           2.4141    0.8120    0.4446 C.2     1  UNL1        0.2683
      8 O           1.8617    1.6306    1.2812 O.2     1  UNL1       -0.2681
      9 N           1.6038    0.4969   -0.6486 N.am    1  UNL1       -0.2802
     10 C           0.2709    1.0213   -0.8207 C.ar    1  UNL1        0.0345
     11 C           0.1657    2.2090   -1.5127 C.ar    1  UNL1       -0.0348
     12 C          -1.0814    2.7694   -1.7156 C.ar    1  UNL1       -0.0132
     13 C          -1.1680    4.0341   -2.4548 C.3     1  UNL1       -0.0369
     14 C          -2.1722    2.0981   -1.2061 C.ar    1  UNL1        0.1319
     15 F          -3.3810    2.6692   -1.4581 F       1  UNL1       -0.2048
     16 C          -2.1233    0.9138   -0.5094 C.ar    1  UNL1        0.0198
     17 C          -3.3306    0.2464    0.0765 C.3     1  UNL1        0.1258
     18 C          -3.9845    1.0429    1.1556 C.3     1  UNL1        0.1196
     19 F          -4.3837    2.2533    0.6881 F       1  UNL1       -0.2462
     20 C          -2.9098   -1.1166    0.6568 C.3     1  UNL1        0.0251
     21 C          -4.0484   -2.0607    0.8312 C.3     1  UNL1        0.1998
     22 C          -4.1890   -2.4427    2.2757 C.3     1  UNL1        0.4266
     23 F          -2.9761   -3.0555    2.6230 F       1  UNL1       -0.1669
     24 F          -4.3522   -1.3752    3.1185 F       1  UNL1       -0.1669
     25 F          -5.2327   -3.3274    2.4820 F       1  UNL1       -0.1669
     26 O          -5.2783   -1.5304    0.3599 O.2     1  UNL1       -0.4534
     27 C          -5.2391   -0.8531   -0.8714 C.2     1  UNL1        0.2766
     28 N          -6.1449   -1.0528   -1.9283 N.pl3   1  UNL1       -0.3134
     29 N          -4.2760    0.0146   -0.9944 N.2     1  UNL1       -0.2228
     30 C          -0.8414    0.3826   -0.3273 C.ar    1  UNL1       -0.0321
     31 C           4.3655   -0.7327    0.3189 C.ar    1  UNL1        0.0724
     32 C           3.6866   -1.6697   -0.5990 C.3     1  UNL1       -0.0200
     33 N           5.6341   -1.0743    0.7072 N.ar    1  UNL1       -0.2146
     34 H           8.9595   -2.2164    2.1777 H       1  UNL1        0.0660
     35 H           7.3781   -2.5631    1.4523 H       1  UNL1        0.0660
     36 H           8.6550   -1.6565    0.4923 H       1  UNL1        0.0660
     37 H           6.2652    1.4425    2.7442 H       1  UNL1        0.0884
     38 H           1.9606   -0.1144   -1.3896 H       1  UNL1        0.1552
     39 H           1.0514    2.7129   -1.9024 H       1  UNL1        0.0640
     40 H          -0.6116    4.8081   -1.8503 H       1  UNL1        0.0278
     41 H          -0.6732    3.9175   -3.4281 H       1  UNL1        0.0278
     42 H          -2.2101    4.4080   -2.5211 H       1  UNL1        0.0278
     43 H          -4.9456    0.4971    1.4108 H       1  UNL1        0.0643
     44 H          -3.3452    1.1022    2.0594 H       1  UNL1        0.0643
     45 H          -2.3125   -0.9236    1.5584 H       1  UNL1        0.0331
     46 H          -2.2530   -1.5597   -0.1526 H       1  UNL1        0.0331
     47 H          -3.8252   -3.0315    0.2793 H       1  UNL1        0.0826
     48 H          -6.8192   -0.2831   -2.1590 H       1  UNL1        0.1466
     49 H          -6.2076   -1.9133   -2.5141 H       1  UNL1        0.1466
     50 H          -0.6967   -0.5209    0.2084 H       1  UNL1        0.0640
     51 H           4.2484   -2.6690   -0.5188 H       1  UNL1        0.0293
     52 H           3.7990   -1.4295   -1.6716 H       1  UNL1        0.0293
     53 H           2.6725   -1.9393   -0.2768 H       1  UNL1        0.0293
@<TRIPOS>BOND
     1     1     2    1
     2     2     3    1
     3     3     4   ar
     4     4     5   ar
     5     5     6   ar
     6     6     7    1
     7     7     8    2
     8     7     9   am
     9     9    10    1
    10    10    11   ar
    11    11    12   ar
    12    12    13    1
    13    12    14   ar
    14    14    15    1
    15    14    16   ar
    16    16    17    1
    17    17    18    1
    18    18    19    1
    19    17    20    1
    20    20    21    1
    21    21    22    1
    22    22    23    1
    23    22    24    1
    24    22    25    1
    25    21    26    1
    26    26    27    1
    27    27    28    1
    28    27    29    2
    29    16    30   ar
    30     6    31   ar
    31    31    32    1
    32    31    33   ar
    33    33     3   ar
    34    30    10   ar
    35    29    17    1
    36     1    34    1
    37     1    35    1
    38     1    36    1
    39     4    37    1
    40     9    38    1
    41    11    39    1
    42    13    40    1
    43    13    41    1
    44    13    42    1
    45    18    43    1
    46    18    44    1
    47    20    45    1
    48    20    46    1
    49    21    47    1
    50    28    48    1
    51    28    49    1
    52    30    50    1
    53    32    51    1
    54    32    52    1
    55    32    53    1
