@<TRIPOS>MOLECULE
*****
 40 43 0 0 0
SMALL
GASTEIGER

@<TRIPOS>ATOM
      1 C           4.7614    3.4423    0.1987 C.3     1  UNL1       -0.0039
      2 C           4.7423    1.9098    0.1344 C.ar    1  UNL1        0.1359
      3 N           5.9678    1.3375   -0.1845 N.ar    1  UNL1       -0.1939
      4 S           5.4955   -0.4546   -0.1546 S.2     1  UNL1        0.0369
      5 C           3.8712   -0.2055    0.2443 C.ar    1  UNL1        0.1652
      6 C           2.7595   -1.1645    0.4644 C.ar    1  UNL1        0.1910
      7 N           2.8242   -2.0969    1.4017 N.ar    1  UNL1       -0.1269
      8 N           1.7012   -2.7882    1.3551 N.ar    1  UNL1       -0.1320
      9 C           0.9190   -2.3097    0.4008 C.ar    1  UNL1        0.1542
     10 N           1.5973   -1.2721   -0.1672 N.ar    1  UNL1       -0.3062
     11 C           1.0574   -0.4999   -1.2512 C.3     1  UNL1        0.0423
     12 C          -0.4432   -0.3966   -1.2535 C.3     1  UNL1        0.0338
     13 N          -1.0871   -1.3254   -0.3257 N.am    1  UNL1       -0.2860
     14 C          -2.2635   -1.0447    0.3741 C.2     1  UNL1        0.2474
     15 O          -2.7532   -1.8929    1.1547 O.2     1  UNL1       -0.2700
     16 C          -3.0058    0.2222    0.2612 C.ar    1  UNL1        0.0425
     17 C          -2.4574    1.4258    0.6114 C.ar    1  UNL1       -0.0113
     18 C          -3.1759    2.5866    0.5016 C.ar    1  UNL1        0.1620
     19 F          -2.6338    3.8007    0.8517 F       1  UNL1       -0.2024
     20 C          -4.4690    2.5575    0.0340 C.ar    1  UNL1        0.1934
     21 F          -5.2013    3.7188   -0.0795 F       1  UNL1       -0.1995
     22 C          -5.0698    1.3637   -0.3340 C.ar    1  UNL1        0.1620
     23 F          -6.3436    1.3962   -0.7861 F       1  UNL1       -0.2024
     24 C          -4.3127    0.2280   -0.2075 C.ar    1  UNL1       -0.0113
     25 C          -0.4097   -2.5874   -0.1768 C.3     1  UNL1        0.0834
     26 C          -1.1567   -3.6621    0.5068 C.3     1  UNL1       -0.0393
     27 N           3.7686    1.1513    0.3316 N.ar    1  UNL1       -0.2199
     28 H           3.7982    3.7778    0.6068 H       1  UNL1        0.0308
     29 H           5.5506    3.7239    0.9200 H       1  UNL1        0.0308
     30 H           4.9294    3.8577   -0.8076 H       1  UNL1        0.0308
     31 H           1.4442   -0.9881   -2.1936 H       1  UNL1        0.0508
     32 H           1.5095    0.5117   -1.2360 H       1  UNL1        0.0508
     33 H          -0.7853   -0.7303   -2.2764 H       1  UNL1        0.0482
     34 H          -0.8049    0.6245   -1.1537 H       1  UNL1        0.0482
     35 H          -1.4381    1.4820    0.9856 H       1  UNL1        0.0655
     36 H          -4.7686   -0.7363   -0.4934 H       1  UNL1        0.0655
     37 H          -0.2018   -2.9463   -1.2293 H       1  UNL1        0.0579
     38 H          -2.1247   -3.8171   -0.0019 H       1  UNL1        0.0252
     39 H          -0.5827   -4.6180    0.3106 H       1  UNL1        0.0252
     40 H          -1.2087   -3.5813    1.5929 H       1  UNL1        0.0252
@<TRIPOS>BOND
     1     1     2    1
     2     2     3   ar
     3     3     4   ar
     4     4     5   ar
     5     5     6    1
     6     6     7   ar
     7     7     8   ar
     8     8     9   ar
     9     9    10   ar
    10    10    11    1
    11    11    12    1
    12    12    13    1
    13    13    14   am
    14    14    15    2
    15    14    16    1
    16    16    17   ar
    17    17    18   ar
    18    18    19    1
    19    18    20   ar
    20    20    21    1
    21    20    22   ar
    22    22    23    1
    23    22    24   ar
    24    13    25    1
    25    25    26    1
    26     5    27   ar
    27    27     2   ar
    28    10     6   ar
    29    24    16   ar
    30    25     9    1
    31     1    28    1
    32     1    29    1
    33     1    30    1
    34    11    31    1
    35    11    32    1
    36    12    33    1
    37    12    34    1
    38    17    35    1
    39    24    36    1
    40    25    37    1
    41    26    38    1
    42    26    39    1
    43    26    40    1
