@<TRIPOS>MOLECULE
*****
 43 45 0 0 0
SMALL
GASTEIGER

@<TRIPOS>ATOM
      1 C          -4.1272    2.3433   -0.8156 C.3     1  UNL1       -0.0432
      2 C          -2.6935    1.8702   -0.8450 C.2     1  UNL1       -0.0674
      3 C          -1.7568    2.8039   -1.5346 C.3     1  UNL1       -0.0432
      4 C          -2.3721    0.7215   -0.3247 C.2     1  UNL1       -0.0119
      5 C          -3.3109   -0.2000    0.3091 C.ar    1  UNL1       -0.0145
      6 C          -4.5284   -0.4988   -0.2456 C.ar    1  UNL1       -0.0359
      7 C          -5.3581   -1.3787    0.4404 C.ar    1  UNL1        0.0281
      8 N          -4.9830   -1.9275    1.6187 N.ar    1  UNL1       -0.2632
      9 C          -3.8047   -1.6567    2.1840 C.ar    1  UNL1        0.0281
     10 C          -2.9698   -0.7996    1.5388 C.ar    1  UNL1       -0.0359
     11 C          -0.9763    0.2842   -0.3041 C.ar    1  UNL1       -0.0173
     12 C          -0.0092    1.1547    0.1974 C.ar    1  UNL1       -0.0534
     13 C           1.3168    0.7824    0.2261 C.ar    1  UNL1       -0.0535
     14 C           1.7392   -0.4445   -0.2306 C.ar    1  UNL1       -0.0177
     15 C           3.1588   -0.7932   -0.1735 C.ar    1  UNL1       -0.0142
     16 C           3.5846   -2.0954    0.0024 C.ar    1  UNL1       -0.0503
     17 C           4.9204   -2.4176    0.0580 C.ar    1  UNL1       -0.0160
     18 C           5.9085   -1.4357   -0.0626 C.ar    1  UNL1        0.1582
     19 O           7.2598   -1.7148   -0.0139 O.3     1  UNL1       -0.5033
     20 C           5.4722   -0.1494   -0.2369 C.ar    1  UNL1        0.1588
     21 O           6.4065    0.8985   -0.3652 O.3     1  UNL1       -0.5033
     22 C           4.1427    0.1856   -0.2933 C.ar    1  UNL1       -0.0088
     23 C           0.7690   -1.2936   -0.7229 C.ar    1  UNL1       -0.0535
     24 C          -0.5681   -0.9320   -0.7584 C.ar    1  UNL1       -0.0534
     25 H          -4.1439    3.4603   -0.6342 H       1  UNL1        0.0275
     26 H          -4.6894    1.9339    0.0399 H       1  UNL1        0.0275
     27 H          -4.6125    2.2315   -1.7990 H       1  UNL1        0.0275
     28 H          -1.3104    3.5557   -0.8799 H       1  UNL1        0.0275
     29 H          -0.9356    2.1511   -1.9584 H       1  UNL1        0.0275
     30 H          -2.2889    3.3302   -2.3633 H       1  UNL1        0.0275
     31 H          -4.8435   -0.0681   -1.2084 H       1  UNL1        0.0639
     32 H          -6.3145   -1.6162    0.0089 H       1  UNL1        0.0830
     33 H          -3.4750   -2.0790    3.1354 H       1  UNL1        0.0830
     34 H          -1.9840   -0.5236    1.9314 H       1  UNL1        0.0639
     35 H          -0.2653    2.1216    0.5838 H       1  UNL1        0.0624
     36 H           2.0357    1.4965    0.6250 H       1  UNL1        0.0624
     37 H           2.8315   -2.8913    0.1002 H       1  UNL1        0.0625
     38 H           5.2665   -3.4306    0.1950 H       1  UNL1        0.0655
     39 H           7.7129   -1.9711   -0.8912 H       1  UNL1        0.2923
     40 H           6.2300    1.6670    0.3042 H       1  UNL1        0.2923
     41 H           3.7558    1.1912   -0.4316 H       1  UNL1        0.0661
     42 H           1.1112   -2.2533   -1.0786 H       1  UNL1        0.0624
     43 H          -1.3011   -1.6128   -1.1481 H       1  UNL1        0.0624
@<TRIPOS>BOND
     1     1     2    1
     2     2     3    1
     3     2     4    2
     4     4     5    1
     5     5     6   ar
     6     6     7   ar
     7     7     8   ar
     8     8     9   ar
     9     9    10   ar
    10     4    11    1
    11    11    12   ar
    12    12    13   ar
    13    13    14   ar
    14    14    15    1
    15    15    16   ar
    16    16    17   ar
    17    17    18   ar
    18    18    19    1
    19    18    20   ar
    20    20    21    1
    21    20    22   ar
    22    14    23   ar
    23    23    24   ar
    24    10     5   ar
    25    24    11   ar
    26    22    15   ar
    27     1    25    1
    28     1    26    1
    29     1    27    1
    30     3    28    1
    31     3    29    1
    32     3    30    1
    33     6    31    1
    34     7    32    1
    35     9    33    1
    36    10    34    1
    37    12    35    1
    38    13    36    1
    39    16    37    1
    40    17    38    1
    41    19    39    1
    42    21    40    1
    43    22    41    1
    44    23    42    1
    45    24    43    1
