
     RDKit          3D

 43 45  0  0  0  0  0  0  0  0999 V2000
   -4.1272    2.3433   -0.8156 C   0  0  0  0  0  0  0  0  0  0  0  0
   -2.6935    1.8702   -0.8450 C   0  0  0  0  0  0  0  0  0  0  0  0
   -1.7568    2.8039   -1.5346 C   0  0  0  0  0  0  0  0  0  0  0  0
   -2.3721    0.7215   -0.3247 C   0  0  0  0  0  0  0  0  0  0  0  0
   -3.3109   -0.2000    0.3091 C   0  0  0  0  0  0  0  0  0  0  0  0
   -4.5284   -0.4988   -0.2456 C   0  0  0  0  0  0  0  0  0  0  0  0
   -5.3581   -1.3787    0.4404 C   0  0  0  0  0  0  0  0  0  0  0  0
   -4.9830   -1.9275    1.6187 N   0  0  0  0  0  0  0  0  0  0  0  0
   -3.8047   -1.6567    2.1840 C   0  0  0  0  0  0  0  0  0  0  0  0
   -2.9698   -0.7996    1.5388 C   0  0  0  0  0  0  0  0  0  0  0  0
   -0.9763    0.2842   -0.3041 C   0  0  0  0  0  0  0  0  0  0  0  0
   -0.0092    1.1547    0.1974 C   0  0  0  0  0  0  0  0  0  0  0  0
    1.3168    0.7824    0.2261 C   0  0  0  0  0  0  0  0  0  0  0  0
    1.7392   -0.4445   -0.2306 C   0  0  0  0  0  0  0  0  0  0  0  0
    3.1588   -0.7932   -0.1735 C   0  0  0  0  0  0  0  0  0  0  0  0
    3.5846   -2.0954    0.0024 C   0  0  0  0  0  0  0  0  0  0  0  0
    4.9204   -2.4176    0.0580 C   0  0  0  0  0  0  0  0  0  0  0  0
    5.9085   -1.4357   -0.0626 C   0  0  0  0  0  0  0  0  0  0  0  0
    7.2598   -1.7148   -0.0139 O   0  0  0  0  0  0  0  0  0  0  0  0
    5.4722   -0.1494   -0.2369 C   0  0  0  0  0  0  0  0  0  0  0  0
    6.4065    0.8985   -0.3652 O   0  0  0  0  0  0  0  0  0  0  0  0
    4.1427    0.1856   -0.2933 C   0  0  0  0  0  0  0  0  0  0  0  0
    0.7690   -1.2936   -0.7229 C   0  0  0  0  0  0  0  0  0  0  0  0
   -0.5681   -0.9320   -0.7584 C   0  0  0  0  0  0  0  0  0  0  0  0
   -4.1439    3.4603   -0.6342 H   0  0  0  0  0  0  0  0  0  0  0  0
   -4.6894    1.9339    0.0399 H   0  0  0  0  0  0  0  0  0  0  0  0
   -4.6125    2.2315   -1.7990 H   0  0  0  0  0  0  0  0  0  0  0  0
   -1.3104    3.5557   -0.8799 H   0  0  0  0  0  0  0  0  0  0  0  0
   -0.9356    2.1511   -1.9584 H   0  0  0  0  0  0  0  0  0  0  0  0
   -2.2889    3.3302   -2.3633 H   0  0  0  0  0  0  0  0  0  0  0  0
   -4.8435   -0.0681   -1.2084 H   0  0  0  0  0  0  0  0  0  0  0  0
   -6.3145   -1.6162    0.0089 H   0  0  0  0  0  0  0  0  0  0  0  0
   -3.4750   -2.0790    3.1354 H   0  0  0  0  0  0  0  0  0  0  0  0
   -1.9840   -0.5236    1.9314 H   0  0  0  0  0  0  0  0  0  0  0  0
   -0.2653    2.1216    0.5838 H   0  0  0  0  0  0  0  0  0  0  0  0
    2.0357    1.4965    0.6250 H   0  0  0  0  0  0  0  0  0  0  0  0
    2.8315   -2.8913    0.1002 H   0  0  0  0  0  0  0  0  0  0  0  0
    5.2665   -3.4306    0.1950 H   0  0  0  0  0  0  0  0  0  0  0  0
    7.7129   -1.9711   -0.8912 H   0  0  0  0  0  0  0  0  0  0  0  0
    6.2300    1.6670    0.3042 H   0  0  0  0  0  0  0  0  0  0  0  0
    3.7558    1.1912   -0.4316 H   0  0  0  0  0  0  0  0  0  0  0  0
    1.1112   -2.2533   -1.0786 H   0  0  0  0  0  0  0  0  0  0  0  0
   -1.3011   -1.6128   -1.1481 H   0  0  0  0  0  0  0  0  0  0  0  0
  1  2  1  0
  2  3  1  0
  2  4  2  3
  4  5  1  0
  5  6  2  0
  6  7  1  0
  7  8  2  0
  8  9  1  0
  9 10  2  0
  4 11  1  0
 11 12  2  0
 12 13  1  0
 13 14  2  0
 14 15  1  0
 15 16  2  0
 16 17  1  0
 17 18  2  0
 18 19  1  0
 18 20  1  0
 20 21  1  0
 20 22  2  0
 14 23  1  0
 23 24  2  0
 10  5  1  0
 24 11  1  0
 22 15  1  0
  1 25  1  0
  1 26  1  0
  1 27  1  0
  3 28  1  0
  3 29  1  0
  3 30  1  0
  6 31  1  0
  7 32  1  0
  9 33  1  0
 10 34  1  0
 12 35  1  0
 13 36  1  0
 16 37  1  0
 17 38  1  0
 19 39  1  0
 21 40  1  0
 22 41  1  0
 23 42  1  0
 24 43  1  0
M  END
$$$$
