@<TRIPOS>MOLECULE
*****
 26 27 0 0 0
SMALL
GASTEIGER

@<TRIPOS>ATOM
      1 O          -2.7620   -1.2206    2.8268 O.2     1  UNL1       -0.2451
      2 C          -1.8739   -0.8933    1.9655 C.2     1  UNL1        0.3387
      3 O          -0.6302   -1.3841    2.2192 O.3     1  UNL1       -0.4771
      4 C          -2.2416   -0.0788    0.8605 C.ar    1  UNL1        0.0825
      5 C          -3.5995    0.3241    0.7879 C.ar    1  UNL1       -0.0278
      6 C          -4.0270    1.1088   -0.2471 C.ar    1  UNL1        0.0285
      7 N          -3.1474    1.4842   -1.1791 N.ar    1  UNL1       -0.2614
      8 C          -1.8552    1.1136   -1.1296 C.ar    1  UNL1        0.0492
      9 C          -1.3639    0.3156   -0.0999 C.ar    1  UNL1        0.0599
     10 N          -0.0199   -0.0249   -0.1174 N.pl3   1  UNL1       -0.3349
     11 C           0.8863    0.4306   -1.1834 C.3     1  UNL1        0.0673
     12 C           2.2486   -0.0908   -0.9299 C.ar    1  UNL1        0.1217
     13 C           3.2225    0.5784   -0.1792 C.ar    1  UNL1       -0.0192
     14 C           4.3466   -0.1996   -0.1600 C.ar    1  UNL1       -0.0236
     15 C           4.0218   -1.3286   -0.9053 C.ar    1  UNL1        0.0921
     16 O           2.7940   -1.2140   -1.3280 O.2     1  UNL1       -0.4662
     17 H          -0.4077   -2.2838    2.6186 H       1  UNL1        0.2954
     18 H          -4.3179    0.0285    1.5321 H       1  UNL1        0.0641
     19 H          -5.0749    1.4355   -0.3275 H       1  UNL1        0.0830
     20 H          -1.1391    1.4232   -1.8943 H       1  UNL1        0.0848
     21 H           0.4445   -0.6095    0.5950 H       1  UNL1        0.1466
     22 H           0.5134    0.0847   -2.1822 H       1  UNL1        0.0542
     23 H           0.9073    1.5406   -1.1091 H       1  UNL1        0.0542
     24 H           3.0667    1.5433    0.2864 H       1  UNL1        0.0652
     25 H           5.2689    0.0442    0.3378 H       1  UNL1        0.0649
     26 H           4.7397   -2.1273   -1.0580 H       1  UNL1        0.1029
@<TRIPOS>BOND
     1     1     2    2
     2     2     3    1
     3     2     4    1
     4     4     5   ar
     5     5     6   ar
     6     6     7   ar
     7     7     8   ar
     8     8     9   ar
     9     9    10    1
    10    10    11    1
    11    11    12    1
    12    12    13   ar
    13    13    14   ar
    14    14    15   ar
    15    15    16   ar
    16     9     4   ar
    17    16    12   ar
    18     3    17    1
    19     5    18    1
    20     6    19    1
    21     8    20    1
    22    10    21    1
    23    11    22    1
    24    11    23    1
    25    13    24    1
    26    14    25    1
    27    15    26    1
