@<TRIPOS>MOLECULE
*****
 55 57 0 0 0
SMALL
GASTEIGER

@<TRIPOS>ATOM
      1 C          -1.5577   -0.2130    5.2425 C.3     1  UNL1       -0.0172
      2 C          -0.4334   -0.7276    4.4385 C.ar    1  UNL1        0.1024
      3 N           0.5672   -1.4910    4.8804 N.ar    1  UNL1       -0.0810
      4 O           1.3637   -1.7484    3.9057 O.2     1  UNL1       -0.3525
      5 C           0.9524   -1.1826    2.7706 C.ar    1  UNL1        0.1887
      6 C           1.6012   -1.2600    1.4776 C.ar    1  UNL1        0.0218
      7 C           2.7622   -2.0414    1.3661 C.ar    1  UNL1       -0.0507
      8 C           3.4452   -2.1647    0.1730 C.ar    1  UNL1       -0.0571
      9 C           3.0200   -1.5259   -0.9704 C.ar    1  UNL1       -0.0375
     10 C           3.7414   -1.6437   -2.2699 C.3     1  UNL1        0.0188
     11 S           4.9683   -0.2896   -2.3632 S.3     1  UNL1       -0.1555
     12 C           3.9829    1.2544   -2.4526 C.3     1  UNL1        0.0040
     13 C           4.8756    2.4680   -2.5339 C.3     1  UNL1        0.0538
     14 C           5.7349    2.5231   -1.3292 C.2     1  UNL1        0.3055
     15 O           6.7376    1.7746   -1.2229 O.2     1  UNL1       -0.2510
     16 O           5.4805    3.3904   -0.2727 O.3     1  UNL1       -0.4806
     17 C           1.8821   -0.7540   -0.8804 C.ar    1  UNL1       -0.0571
     18 C           1.1918   -0.6313    0.3342 C.ar    1  UNL1       -0.0507
     19 C          -0.1914   -0.5290    3.0926 C.ar    1  UNL1        0.1064
     20 N          -1.0559    0.2276    2.2690 N.am    1  UNL1       -0.2461
     21 C          -2.2016   -0.3412    1.6035 C.2     1  UNL1        0.4053
     22 O          -2.4545   -1.5525    1.7491 O.2     1  UNL1       -0.2261
     23 O          -3.0395    0.3944    0.8063 O.3     1  UNL1       -0.4423
     24 C          -4.1674   -0.1235    0.1354 C.3     1  UNL1        0.1282
     25 C          -5.4696    0.4268    0.6717 C.3     1  UNL1       -0.0233
     26 C          -4.0717   -0.0206   -1.3215 C.ar    1  UNL1        0.0108
     27 C          -4.4632   -1.0117   -2.1952 C.ar    1  UNL1       -0.0537
     28 C          -4.3534   -0.8789   -3.5661 C.ar    1  UNL1       -0.0613
     29 C          -3.8358    0.2793   -4.1097 C.ar    1  UNL1       -0.0604
     30 C          -3.4369    1.2864   -3.2575 C.ar    1  UNL1       -0.0430
     31 C          -3.5562    1.1315   -1.8825 C.ar    1  UNL1        0.0476
     32 CL         -3.0417    2.4227   -0.8277 Cl      1  UNL1       -0.0831
     33 H          -1.9658    0.6763    4.7262 H       1  UNL1        0.0294
     34 H          -2.3244   -0.9806    5.4614 H       1  UNL1        0.0294
     35 H          -1.1705    0.1176    6.2366 H       1  UNL1        0.0294
     36 H           3.0965   -2.5471    2.2747 H       1  UNL1        0.0625
     37 H           4.3294   -2.7642    0.1014 H       1  UNL1        0.0621
     38 H           4.3369   -2.5935   -2.3104 H       1  UNL1        0.0425
     39 H           3.0772   -1.6591   -3.1338 H       1  UNL1        0.0425
     40 H           3.3708    1.1694   -3.3731 H       1  UNL1        0.0382
     41 H           3.3994    1.3056   -1.5280 H       1  UNL1        0.0382
     42 H           4.2273    3.3428   -2.6279 H       1  UNL1        0.0385
     43 H           5.4666    2.3892   -3.4762 H       1  UNL1        0.0385
     44 H           6.1547    3.5146    0.4779 H       1  UNL1        0.2951
     45 H           1.5313   -0.2470   -1.7596 H       1  UNL1        0.0621
     46 H           0.3158   -0.0167    0.3734 H       1  UNL1        0.0625
     47 H          -0.9196    1.2627    2.0876 H       1  UNL1        0.1583
     48 H          -4.1853   -1.2214    0.4069 H       1  UNL1        0.0783
     49 H          -6.2169   -0.3539    0.7998 H       1  UNL1        0.0269
     50 H          -5.8546    1.1274   -0.1142 H       1  UNL1        0.0269
     51 H          -5.3143    1.0693    1.5696 H       1  UNL1        0.0269
     52 H          -4.8703   -1.9198   -1.7264 H       1  UNL1        0.0622
     53 H          -4.6762   -1.6893   -4.2113 H       1  UNL1        0.0618
     54 H          -3.7558    0.3679   -5.1867 H       1  UNL1        0.0618
     55 H          -3.0293    2.2013   -3.6827 H       1  UNL1        0.0632
@<TRIPOS>BOND
     1     1     2    1
     2     2     3   ar
     3     3     4   ar
     4     4     5   ar
     5     5     6    1
     6     6     7   ar
     7     7     8   ar
     8     8     9   ar
     9     9    10    1
    10    10    11    1
    11    11    12    1
    12    12    13    1
    13    13    14    1
    14    14    15    2
    15    14    16    1
    16     9    17   ar
    17    17    18   ar
    18     5    19   ar
    19    19    20    1
    20    20    21   am
    21    21    22    2
    22    21    23    1
    23    23    24    1
    24    24    25    1
    25    24    26    1
    26    26    27   ar
    27    27    28   ar
    28    28    29   ar
    29    29    30   ar
    30    30    31   ar
    31    31    32    1
    32    19     2   ar
    33    31    26   ar
    34    18     6   ar
    35     1    33    1
    36     1    34    1
    37     1    35    1
    38     7    36    1
    39     8    37    1
    40    10    38    1
    41    10    39    1
    42    12    40    1
    43    12    41    1
    44    13    42    1
    45    13    43    1
    46    16    44    1
    47    17    45    1
    48    18    46    1
    49    20    47    1
    50    24    48    1
    51    25    49    1
    52    25    50    1
    53    25    51    1
    54    27    52    1
    55    28    53    1
    56    29    54    1
    57    30    55    1
