
     RDKit          3D

 55 57  0  0  0  0  0  0  0  0999 V2000
   -1.5577   -0.2130    5.2425 C   0  0  0  0  0  0  0  0  0  0  0  0
   -0.4334   -0.7276    4.4385 C   0  0  0  0  0  0  0  0  0  0  0  0
    0.5672   -1.4910    4.8804 N   0  0  0  0  0  0  0  0  0  0  0  0
    1.3637   -1.7484    3.9057 O   0  0  0  0  0  0  0  0  0  0  0  0
    0.9524   -1.1826    2.7706 C   0  0  0  0  0  0  0  0  0  0  0  0
    1.6012   -1.2600    1.4776 C   0  0  0  0  0  0  0  0  0  0  0  0
    2.7622   -2.0414    1.3661 C   0  0  0  0  0  0  0  0  0  0  0  0
    3.4452   -2.1647    0.1730 C   0  0  0  0  0  0  0  0  0  0  0  0
    3.0200   -1.5259   -0.9704 C   0  0  0  0  0  0  0  0  0  0  0  0
    3.7414   -1.6437   -2.2699 C   0  0  0  0  0  0  0  0  0  0  0  0
    4.9683   -0.2896   -2.3632 S   0  0  0  0  0  0  0  0  0  0  0  0
    3.9829    1.2544   -2.4526 C   0  0  0  0  0  0  0  0  0  0  0  0
    4.8756    2.4680   -2.5339 C   0  0  0  0  0  0  0  0  0  0  0  0
    5.7349    2.5231   -1.3292 C   0  0  0  0  0  0  0  0  0  0  0  0
    6.7376    1.7746   -1.2229 O   0  0  0  0  0  0  0  0  0  0  0  0
    5.4805    3.3904   -0.2727 O   0  0  0  0  0  0  0  0  0  0  0  0
    1.8821   -0.7540   -0.8804 C   0  0  0  0  0  0  0  0  0  0  0  0
    1.1918   -0.6313    0.3342 C   0  0  0  0  0  0  0  0  0  0  0  0
   -0.1914   -0.5290    3.0926 C   0  0  0  0  0  0  0  0  0  0  0  0
   -1.0559    0.2276    2.2690 N   0  0  0  0  0  0  0  0  0  0  0  0
   -2.2016   -0.3412    1.6035 C   0  0  0  0  0  0  0  0  0  0  0  0
   -2.4545   -1.5525    1.7491 O   0  0  0  0  0  0  0  0  0  0  0  0
   -3.0395    0.3944    0.8063 O   0  0  0  0  0  0  0  0  0  0  0  0
   -4.1674   -0.1235    0.1354 C   0  0  0  0  0  0  0  0  0  0  0  0
   -5.4696    0.4268    0.6717 C   0  0  0  0  0  0  0  0  0  0  0  0
   -4.0717   -0.0206   -1.3215 C   0  0  0  0  0  0  0  0  0  0  0  0
   -4.4632   -1.0117   -2.1952 C   0  0  0  0  0  0  0  0  0  0  0  0
   -4.3534   -0.8789   -3.5661 C   0  0  0  0  0  0  0  0  0  0  0  0
   -3.8358    0.2793   -4.1097 C   0  0  0  0  0  0  0  0  0  0  0  0
   -3.4369    1.2864   -3.2575 C   0  0  0  0  0  0  0  0  0  0  0  0
   -3.5562    1.1315   -1.8825 C   0  0  0  0  0  0  0  0  0  0  0  0
   -3.0417    2.4227   -0.8277 Cl  0  0  0  0  0  0  0  0  0  0  0  0
   -1.9658    0.6763    4.7262 H   0  0  0  0  0  0  0  0  0  0  0  0
   -2.3244   -0.9806    5.4614 H   0  0  0  0  0  0  0  0  0  0  0  0
   -1.1705    0.1176    6.2366 H   0  0  0  0  0  0  0  0  0  0  0  0
    3.0965   -2.5471    2.2747 H   0  0  0  0  0  0  0  0  0  0  0  0
    4.3294   -2.7642    0.1014 H   0  0  0  0  0  0  0  0  0  0  0  0
    4.3369   -2.5935   -2.3104 H   0  0  0  0  0  0  0  0  0  0  0  0
    3.0772   -1.6591   -3.1338 H   0  0  0  0  0  0  0  0  0  0  0  0
    3.3708    1.1694   -3.3731 H   0  0  0  0  0  0  0  0  0  0  0  0
    3.3994    1.3056   -1.5280 H   0  0  0  0  0  0  0  0  0  0  0  0
    4.2273    3.3428   -2.6279 H   0  0  0  0  0  0  0  0  0  0  0  0
    5.4666    2.3892   -3.4762 H   0  0  0  0  0  0  0  0  0  0  0  0
    6.1547    3.5146    0.4779 H   0  0  0  0  0  0  0  0  0  0  0  0
    1.5313   -0.2470   -1.7596 H   0  0  0  0  0  0  0  0  0  0  0  0
    0.3158   -0.0167    0.3734 H   0  0  0  0  0  0  0  0  0  0  0  0
   -0.9196    1.2627    2.0876 H   0  0  0  0  0  0  0  0  0  0  0  0
   -4.1853   -1.2214    0.4069 H   0  0  0  0  0  0  0  0  0  0  0  0
   -6.2169   -0.3539    0.7998 H   0  0  0  0  0  0  0  0  0  0  0  0
   -5.8546    1.1274   -0.1142 H   0  0  0  0  0  0  0  0  0  0  0  0
   -5.3143    1.0693    1.5696 H   0  0  0  0  0  0  0  0  0  0  0  0
   -4.8703   -1.9198   -1.7264 H   0  0  0  0  0  0  0  0  0  0  0  0
   -4.6762   -1.6893   -4.2113 H   0  0  0  0  0  0  0  0  0  0  0  0
   -3.7558    0.3679   -5.1867 H   0  0  0  0  0  0  0  0  0  0  0  0
   -3.0293    2.2013   -3.6827 H   0  0  0  0  0  0  0  0  0  0  0  0
  1  2  1  0
  2  3  2  0
  3  4  1  0
  4  5  1  0
  5  6  1  0
  6  7  2  0
  7  8  1  0
  8  9  2  0
  9 10  1  0
 10 11  1  0
 11 12  1  0
 12 13  1  0
 13 14  1  0
 14 15  2  0
 14 16  1  0
  9 17  1  0
 17 18  2  0
  5 19  2  0
 19 20  1  0
 20 21  1  0
 21 22  2  0
 21 23  1  0
 23 24  1  0
 24 25  1  0
 24 26  1  0
 26 27  2  0
 27 28  1  0
 28 29  2  0
 29 30  1  0
 30 31  2  0
 31 32  1  0
 19  2  1  0
 31 26  1  0
 18  6  1  0
  1 33  1  0
  1 34  1  0
  1 35  1  0
  7 36  1  0
  8 37  1  0
 10 38  1  0
 10 39  1  0
 12 40  1  0
 12 41  1  0
 13 42  1  0
 13 43  1  0
 16 44  1  0
 17 45  1  0
 18 46  1  0
 20 47  1  0
 24 48  1  0
 25 49  1  0
 25 50  1  0
 25 51  1  0
 27 52  1  0
 28 53  1  0
 29 54  1  0
 30 55  1  0
M  END
$$$$
