@<TRIPOS>MOLECULE
*****
 46 48 0 0 0
SMALL
GASTEIGER

@<TRIPOS>ATOM
      1 C           6.6581    1.6236   -0.7752 C.3     1  UNL1        0.0788
      2 O           5.9491    0.4226   -1.0130 O.3     1  UNL1       -0.4951
      3 C           4.7990    0.0691   -0.3616 C.ar    1  UNL1        0.1202
      4 C           4.1769    0.8265    0.6075 C.ar    1  UNL1       -0.0181
      5 C           3.0177    0.4438    1.2470 C.ar    1  UNL1       -0.0314
      6 C           2.3996   -0.7436    0.9487 C.ar    1  UNL1        0.1112
      7 C           3.0308   -1.5141   -0.0359 C.ar    1  UNL1       -0.0314
      8 C           4.1964   -1.1295   -0.6791 C.ar    1  UNL1       -0.0181
      9 S           0.9464   -1.3660    1.6542 S.O2    1  UNL1        0.0842
     10 O           0.8995   -0.9108    3.0921 O.2     1  UNL1       -0.1476
     11 O           1.0930   -2.8685    1.7198 O.2     1  UNL1       -0.1476
     12 N          -0.4824   -0.9405    0.8050 N.ar    1  UNL1       -0.2180
     13 C          -1.3374   -1.8267    0.2290 C.ar    1  UNL1        0.0333
     14 C          -2.3888   -1.1820   -0.3768 C.ar    1  UNL1       -0.0196
     15 C          -3.5435   -1.7446   -1.1235 C.3     1  UNL1       -0.0156
     16 C          -3.5349   -3.2538   -1.0881 C.3     1  UNL1        0.0488
     17 C          -3.6269   -3.6474    0.3629 C.2     1  UNL1        0.3050
     18 O          -3.6220   -4.9583    0.7687 O.3     1  UNL1       -0.4806
     19 O          -3.7136   -2.7751    1.2795 O.2     1  UNL1       -0.2510
     20 C          -2.1949    0.1698   -0.1784 C.ar    1  UNL1        0.0083
     21 C          -2.9180    1.2790   -0.5561 C.ar    1  UNL1       -0.0105
     22 C          -2.4558    2.5313   -0.1992 C.ar    1  UNL1        0.1208
     23 O          -3.2590    3.5775   -0.6294 O.3     1  UNL1       -0.4951
     24 C          -2.8913    4.8916   -0.3267 C.3     1  UNL1        0.0788
     25 C          -1.2920    2.6707    0.5220 C.ar    1  UNL1       -0.0179
     26 C          -0.6016    1.5278    0.8777 C.ar    1  UNL1       -0.0324
     27 C          -1.0252    0.2582    0.5433 C.ar    1  UNL1        0.0727
     28 H           7.2138    1.9872   -1.6646 H       1  UNL1        0.0660
     29 H           5.9354    2.4376   -0.5071 H       1  UNL1        0.0660
     30 H           7.3268    1.5281    0.1114 H       1  UNL1        0.0660
     31 H           4.6078    1.7681    0.8888 H       1  UNL1        0.0655
     32 H           2.5473    1.0492    2.0039 H       1  UNL1        0.0638
     33 H           2.5965   -2.4673   -0.3230 H       1  UNL1        0.0638
     34 H           4.6178   -1.8027   -1.4397 H       1  UNL1        0.0655
     35 H          -1.1814   -2.9139    0.2571 H       1  UNL1        0.0831
     36 H          -3.4407   -1.4369   -2.2005 H       1  UNL1        0.0319
     37 H          -4.4965   -1.3219   -0.7499 H       1  UNL1        0.0319
     38 H          -4.4779   -3.6300   -1.5358 H       1  UNL1        0.0381
     39 H          -2.6644   -3.6831   -1.5862 H       1  UNL1        0.0381
     40 H          -4.0155   -5.1976    1.6541 H       1  UNL1        0.2951
     41 H          -3.8312    1.1263   -1.1244 H       1  UNL1        0.0661
     42 H          -2.0814    5.2163   -1.0223 H       1  UNL1        0.0660
     43 H          -2.5047    5.0143    0.7253 H       1  UNL1        0.0660
     44 H          -3.7695    5.5599   -0.4365 H       1  UNL1        0.0660
     45 H          -0.9704    3.6708    0.7781 H       1  UNL1        0.0655
     46 H           0.3088    1.6650    1.4442 H       1  UNL1        0.0640
@<TRIPOS>BOND
     1     1     2    1
     2     2     3    1
     3     3     4   ar
     4     4     5   ar
     5     5     6   ar
     6     6     7   ar
     7     7     8   ar
     8     6     9    1
     9     9    10    2
    10     9    11    2
    11     9    12    1
    12    12    13   ar
    13    13    14   ar
    14    14    15    1
    15    15    16    1
    16    16    17    1
    17    17    18    1
    18    17    19    2
    19    14    20   ar
    20    20    21   ar
    21    21    22   ar
    22    22    23    1
    23    23    24    1
    24    22    25   ar
    25    25    26   ar
    26    26    27   ar
    27     8     3   ar
    28    27    12   ar
    29    27    20   ar
    30     1    28    1
    31     1    29    1
    32     1    30    1
    33     4    31    1
    34     5    32    1
    35     7    33    1
    36     8    34    1
    37    13    35    1
    38    15    36    1
    39    15    37    1
    40    16    38    1
    41    16    39    1
    42    18    40    1
    43    21    41    1
    44    24    42    1
    45    24    43    1
    46    24    44    1
    47    25    45    1
    48    26    46    1
