@<TRIPOS>MOLECULE
*****
 45 48 0 0 0
SMALL
GASTEIGER

@<TRIPOS>ATOM
      1 C           3.0247   -1.8634    0.1693 C.3     1  UNL1        0.0124
      2 N           1.8743   -1.0155   -0.0502 N.ar    1  UNL1       -0.3426
      3 C           0.5437   -1.3090   -0.1430 C.ar    1  UNL1        0.0563
      4 C           0.0792   -2.7087   -0.1410 C.ar    1  UNL1        0.0364
      5 C          -1.1495   -3.1739   -0.4852 C.ar    1  UNL1       -0.0148
      6 C          -1.1759   -4.5496   -0.2315 C.ar    1  UNL1        0.0923
      7 O          -0.0226   -4.8783    0.2368 O.2     1  UNL1       -0.4704
      8 C           0.7800   -3.8274    0.3190 C.ar    1  UNL1        0.1008
      9 C          -0.1394   -0.1333   -0.3871 C.ar    1  UNL1       -0.0110
     10 C          -1.5713    0.0002   -0.4555 C.3     1  UNL1       -0.0133
     11 C          -2.1943    1.3432   -0.6126 C.3     1  UNL1       -0.0461
     12 C          -3.7290    1.0682   -0.4528 C.3     1  UNL1       -0.0525
     13 C          -4.0073    1.0613    1.0446 C.3     1  UNL1       -0.0530
     14 C          -2.7644    0.5010    1.7234 C.3     1  UNL1       -0.0525
     15 C          -2.1385   -0.5791    0.8568 C.3     1  UNL1       -0.0461
     16 C           0.7966    0.8898   -0.4498 C.ar    1  UNL1        0.0039
     17 C           0.6737    2.2329   -0.6787 C.ar    1  UNL1       -0.0515
     18 C           1.8210    3.0358   -0.6920 C.ar    1  UNL1       -0.0471
     19 C           3.0641    2.5004   -0.4806 C.ar    1  UNL1        0.0608
     20 C           4.2794    3.3061   -0.4865 C.2     1  UNL1        0.3369
     21 O           4.2487    4.5529   -0.6889 O.2     1  UNL1       -0.2451
     22 O           5.5353    2.7561   -0.2714 O.3     1  UNL1       -0.4771
     23 C           3.1667    1.1377   -0.2524 C.ar    1  UNL1       -0.0236
     24 C           2.0522    0.3198   -0.2340 C.ar    1  UNL1        0.0503
     25 H           3.0281   -2.6894   -0.5628 H       1  UNL1        0.0456
     26 H           3.1137   -2.2697    1.1882 H       1  UNL1        0.0456
     27 H           3.9834   -1.2728    0.0221 H       1  UNL1        0.0456
     28 H          -1.9997   -2.7050   -0.9036 H       1  UNL1        0.0655
     29 H          -2.0323   -5.2175   -0.4049 H       1  UNL1        0.1029
     30 H           1.7729   -3.9127    0.6874 H       1  UNL1        0.1036
     31 H          -1.9874   -0.6011   -1.2769 H       1  UNL1        0.0350
     32 H          -2.0381    2.0647    0.1819 H       1  UNL1        0.0271
     33 H          -2.1459    1.6672   -1.6488 H       1  UNL1        0.0271
     34 H          -4.2417    1.9369   -0.8992 H       1  UNL1        0.0265
     35 H          -4.0083    0.1561   -0.9634 H       1  UNL1        0.0265
     36 H          -4.8815    0.4293    1.2156 H       1  UNL1        0.0265
     37 H          -4.1372    2.0956    1.4191 H       1  UNL1        0.0265
     38 H          -2.0326    1.2466    2.0091 H       1  UNL1        0.0265
     39 H          -3.1162   -0.0145    2.6334 H       1  UNL1        0.0265
     40 H          -2.9481   -1.3109    0.6777 H       1  UNL1        0.0271
     41 H          -1.3608   -1.0678    1.4587 H       1  UNL1        0.0271
     42 H          -0.2457    2.7131   -0.8667 H       1  UNL1        0.0624
     43 H           1.7241    4.0933   -0.8716 H       1  UNL1        0.0626
     44 H           6.3746    3.3153   -0.1724 H       1  UNL1        0.2954
     45 H           4.1315    0.6763   -0.0794 H       1  UNL1        0.0646
@<TRIPOS>BOND
     1     1     2    1
     2     2     3   ar
     3     3     4    1
     4     4     5   ar
     5     5     6   ar
     6     6     7   ar
     7     7     8   ar
     8     3     9   ar
     9     9    10    1
    10    10    11    1
    11    11    12    1
    12    12    13    1
    13    13    14    1
    14    14    15    1
    15     9    16   ar
    16    16    17   ar
    17    17    18   ar
    18    18    19   ar
    19    19    20    1
    20    20    21    2
    21    20    22    1
    22    19    23   ar
    23    23    24   ar
    24    24     2   ar
    25     8     4   ar
    26    15    10    1
    27    24    16   ar
    28     1    25    1
    29     1    26    1
    30     1    27    1
    31     5    28    1
    32     6    29    1
    33     8    30    1
    34    10    31    1
    35    11    32    1
    36    11    33    1
    37    12    34    1
    38    12    35    1
    39    13    36    1
    40    13    37    1
    41    14    38    1
    42    14    39    1
    43    15    40    1
    44    15    41    1
    45    17    42    1
    46    18    43    1
    47    22    44    1
    48    23    45    1
