
     RDKit          3D

 45 48  0  0  0  0  0  0  0  0999 V2000
    3.0247   -1.8634    0.1693 C   0  0  0  0  0  0  0  0  0  0  0  0
    1.8743   -1.0155   -0.0502 N   0  0  0  0  0  0  0  0  0  0  0  0
    0.5437   -1.3090   -0.1430 C   0  0  0  0  0  0  0  0  0  0  0  0
    0.0792   -2.7087   -0.1410 C   0  0  0  0  0  0  0  0  0  0  0  0
   -1.1495   -3.1739   -0.4852 C   0  0  0  0  0  0  0  0  0  0  0  0
   -1.1759   -4.5496   -0.2315 C   0  0  0  0  0  0  0  0  0  0  0  0
   -0.0226   -4.8783    0.2368 O   0  0  0  0  0  0  0  0  0  0  0  0
    0.7800   -3.8274    0.3190 C   0  0  0  0  0  0  0  0  0  0  0  0
   -0.1394   -0.1333   -0.3871 C   0  0  0  0  0  0  0  0  0  0  0  0
   -1.5713    0.0002   -0.4555 C   0  0  0  0  0  0  0  0  0  0  0  0
   -2.1943    1.3432   -0.6126 C   0  0  0  0  0  0  0  0  0  0  0  0
   -3.7290    1.0682   -0.4528 C   0  0  0  0  0  0  0  0  0  0  0  0
   -4.0073    1.0613    1.0446 C   0  0  0  0  0  0  0  0  0  0  0  0
   -2.7644    0.5010    1.7234 C   0  0  0  0  0  0  0  0  0  0  0  0
   -2.1385   -0.5791    0.8568 C   0  0  0  0  0  0  0  0  0  0  0  0
    0.7966    0.8898   -0.4498 C   0  0  0  0  0  0  0  0  0  0  0  0
    0.6737    2.2329   -0.6787 C   0  0  0  0  0  0  0  0  0  0  0  0
    1.8210    3.0358   -0.6920 C   0  0  0  0  0  0  0  0  0  0  0  0
    3.0641    2.5004   -0.4806 C   0  0  0  0  0  0  0  0  0  0  0  0
    4.2794    3.3061   -0.4865 C   0  0  0  0  0  0  0  0  0  0  0  0
    4.2487    4.5529   -0.6889 O   0  0  0  0  0  0  0  0  0  0  0  0
    5.5353    2.7561   -0.2714 O   0  0  0  0  0  0  0  0  0  0  0  0
    3.1667    1.1377   -0.2524 C   0  0  0  0  0  0  0  0  0  0  0  0
    2.0522    0.3198   -0.2340 C   0  0  0  0  0  0  0  0  0  0  0  0
    3.0281   -2.6894   -0.5628 H   0  0  0  0  0  0  0  0  0  0  0  0
    3.1137   -2.2697    1.1882 H   0  0  0  0  0  0  0  0  0  0  0  0
    3.9834   -1.2728    0.0221 H   0  0  0  0  0  0  0  0  0  0  0  0
   -1.9997   -2.7050   -0.9036 H   0  0  0  0  0  0  0  0  0  0  0  0
   -2.0323   -5.2175   -0.4049 H   0  0  0  0  0  0  0  0  0  0  0  0
    1.7729   -3.9127    0.6874 H   0  0  0  0  0  0  0  0  0  0  0  0
   -1.9874   -0.6011   -1.2769 H   0  0  0  0  0  0  0  0  0  0  0  0
   -2.0381    2.0647    0.1819 H   0  0  0  0  0  0  0  0  0  0  0  0
   -2.1459    1.6672   -1.6488 H   0  0  0  0  0  0  0  0  0  0  0  0
   -4.2417    1.9369   -0.8992 H   0  0  0  0  0  0  0  0  0  0  0  0
   -4.0083    0.1561   -0.9634 H   0  0  0  0  0  0  0  0  0  0  0  0
   -4.8815    0.4293    1.2156 H   0  0  0  0  0  0  0  0  0  0  0  0
   -4.1372    2.0956    1.4191 H   0  0  0  0  0  0  0  0  0  0  0  0
   -2.0326    1.2466    2.0091 H   0  0  0  0  0  0  0  0  0  0  0  0
   -3.1162   -0.0145    2.6334 H   0  0  0  0  0  0  0  0  0  0  0  0
   -2.9481   -1.3109    0.6777 H   0  0  0  0  0  0  0  0  0  0  0  0
   -1.3608   -1.0678    1.4587 H   0  0  0  0  0  0  0  0  0  0  0  0
   -0.2457    2.7131   -0.8667 H   0  0  0  0  0  0  0  0  0  0  0  0
    1.7241    4.0933   -0.8716 H   0  0  0  0  0  0  0  0  0  0  0  0
    6.3746    3.3153   -0.1724 H   0  0  0  0  0  0  0  0  0  0  0  0
    4.1315    0.6763   -0.0794 H   0  0  0  0  0  0  0  0  0  0  0  0
  1  2  1  0
  2  3  1  0
  3  4  1  0
  4  5  1  0
  5  6  2  0
  6  7  1  0
  7  8  1  0
  3  9  2  0
  9 10  1  0
 10 11  1  0
 11 12  1  0
 12 13  1  0
 13 14  1  0
 14 15  1  0
  9 16  1  0
 16 17  2  0
 17 18  1  0
 18 19  2  0
 19 20  1  0
 20 21  2  0
 20 22  1  0
 19 23  1  0
 23 24  2  0
 24  2  1  0
  8  4  2  0
 15 10  1  0
 24 16  1  0
  1 25  1  0
  1 26  1  0
  1 27  1  0
  5 28  1  0
  6 29  1  0
  8 30  1  0
 10 31  1  0
 11 32  1  0
 11 33  1  0
 12 34  1  0
 12 35  1  0
 13 36  1  0
 13 37  1  0
 14 38  1  0
 14 39  1  0
 15 40  1  0
 15 41  1  0
 17 42  1  0
 18 43  1  0
 22 44  1  0
 23 45  1  0
M  END
$$$$
