@<TRIPOS>MOLECULE
*****
 48 52 0 0 0
SMALL
GASTEIGER

@<TRIPOS>ATOM
      1 N           3.1928   -1.8989   -1.5800 N.1     1  UNL1       -0.1909
      2 C           4.1854   -1.7115   -0.9445 C.1     1  UNL1        0.0998
      3 C           5.3769   -1.4868   -0.1953 C.ar    1  UNL1        0.0595
      4 C           6.5264   -2.2613   -0.3908 C.ar    1  UNL1       -0.0438
      5 C           7.6712   -2.0252    0.3565 C.ar    1  UNL1       -0.0605
      6 C           7.6398   -1.0138    1.2870 C.ar    1  UNL1       -0.0611
      7 C           6.5152   -0.2615    1.4744 C.ar    1  UNL1       -0.0528
      8 C           5.3588   -0.4594    0.7589 C.ar    1  UNL1       -0.0005
      9 C           4.1443    0.3214    0.9137 C.ar    1  UNL1       -0.0166
     10 C           4.2540    1.7082    0.8683 C.ar    1  UNL1       -0.0537
     11 C           3.1287    2.4816    1.0003 C.ar    1  UNL1       -0.0572
     12 C           1.8711    1.9426    1.1766 C.ar    1  UNL1       -0.0370
     13 C           0.6928    2.8855    1.2616 C.3     1  UNL1        0.0278
     14 S           0.1906    3.0934   -0.4916 S.3     1  UNL1       -0.0609
     15 C          -0.5243    1.4872   -0.9681 C.ar    1  UNL1        0.2779
     16 N           0.2170    0.4628   -1.3639 N.ar    1  UNL1       -0.1006
     17 N          -0.6840   -0.4109   -1.5934 N.ar    1  UNL1       -0.1065
     18 C          -1.8423   -0.4089   -1.5132 C.ar    1  UNL1        0.2493
     19 C          -3.3326   -0.3932   -1.4056 C.ar    1  UNL1        0.0422
     20 C          -3.8943   -1.5293   -2.0801 C.ar    1  UNL1       -0.0458
     21 C          -5.2259   -1.8037   -2.0594 C.ar    1  UNL1       -0.0156
     22 C          -6.0886   -0.9870   -1.3802 C.ar    1  UNL1        0.1621
     23 C          -5.5882    0.1376   -0.7046 C.ar    1  UNL1        0.1628
     24 C          -4.2230    0.3531   -0.7701 C.ar    1  UNL1       -0.0040
     25 O          -6.4919    0.9290   -0.0311 O.3     1  UNL1       -0.4849
     26 C          -7.5144    0.2425    0.7055 C.3     1  UNL1        0.1237
     27 C          -8.2508   -0.6458   -0.2590 C.3     1  UNL1        0.1237
     28 O          -7.4519   -1.1465   -1.2826 O.3     1  UNL1       -0.4849
     29 O          -1.7039    1.1337   -1.0023 O.2     1  UNL1       -0.4110
     30 C           1.7520    0.5855    1.2251 C.ar    1  UNL1       -0.0572
     31 C           2.8858   -0.2348    1.0942 C.ar    1  UNL1       -0.0537
     32 H           6.5196   -3.0366   -1.1382 H       1  UNL1        0.0631
     33 H           8.5617   -2.6500    0.1792 H       1  UNL1        0.0618
     34 H           8.5272   -0.8174    1.8895 H       1  UNL1        0.0618
     35 H           6.5139    0.5527    2.2284 H       1  UNL1        0.0624
     36 H           5.2560    2.1498    0.7205 H       1  UNL1        0.0624
     37 H           3.2055    3.5617    0.9621 H       1  UNL1        0.0621
     38 H          -0.1337    2.4514    1.8757 H       1  UNL1        0.0430
     39 H           1.0086    3.8190    1.7273 H       1  UNL1        0.0430
     40 H          -3.2183   -2.1734   -2.6164 H       1  UNL1        0.0626
     41 H          -5.6718   -2.6570   -2.5726 H       1  UNL1        0.0655
     42 H          -3.8581    1.2367   -0.2189 H       1  UNL1        0.0663
     43 H          -7.0937   -0.3271    1.5504 H       1  UNL1        0.0731
     44 H          -8.2152    1.0079    1.1488 H       1  UNL1        0.0731
     45 H          -9.1385   -0.1380   -0.7006 H       1  UNL1        0.0731
     46 H          -8.5673   -1.5404    0.3582 H       1  UNL1        0.0731
     47 H           0.7604    0.1756    1.3688 H       1  UNL1        0.0621
     48 H           2.7572   -1.2744    1.1316 H       1  UNL1        0.0624
@<TRIPOS>BOND
     1     1     2    3
     2     2     3    1
     3     3     4   ar
     4     4     5   ar
     5     5     6   ar
     6     6     7   ar
     7     7     8   ar
     8     8     9    1
     9     9    10   ar
    10    10    11   ar
    11    11    12   ar
    12    12    13    1
    13    13    14    1
    14    14    15    1
    15    15    16   ar
    16    16    17   ar
    17    17    18   ar
    18    18    19    1
    19    19    20   ar
    20    20    21   ar
    21    21    22   ar
    22    22    23   ar
    23    23    24   ar
    24    23    25    1
    25    25    26    1
    26    26    27    1
    27    27    28    1
    28    18    29   ar
    29    12    30   ar
    30    30    31   ar
    31     8     3   ar
    32    31     9   ar
    33    29    15   ar
    34    24    19   ar
    35    28    22    1
    36     4    32    1
    37     5    33    1
    38     6    34    1
    39     7    35    1
    40    10    36    1
    41    11    37    1
    42    13    38    1
    43    13    39    1
    44    20    40    1
    45    21    41    1
    46    24    42    1
    47    26    43    1
    48    26    44    1
    49    27    45    1
    50    27    46    1
    51    30    47    1
    52    31    48    1
