@<TRIPOS>MOLECULE
*****
 38 39 0 0 0
SMALL
GASTEIGER

@<TRIPOS>ATOM
      1 N           6.0870    0.7324    0.5099 N.am    1  UNL1       -0.3252
      2 C           4.8757    0.1180    0.0647 C.2     1  UNL1        0.2472
      3 O           4.9901   -0.8831   -0.7097 O.2     1  UNL1       -0.2702
      4 C           3.6034    0.6492    0.5042 C.ar    1  UNL1        0.1000
      5 C           3.5157    1.7290    1.3388 C.ar    1  UNL1       -0.0383
      6 C           2.2421    2.1333    1.6804 C.ar    1  UNL1        0.0029
      7 C           1.1011    1.4881    1.2098 C.ar    1  UNL1        0.1738
      8 N           1.2274    0.4123    0.3775 N.ar    1  UNL1       -0.1731
      9 C           2.4625    0.0417    0.0627 C.ar    1  UNL1        0.1859
     10 C          -0.0237   -0.1388   -0.0178 C.3     1  UNL1        0.2949
     11 O          -0.7396   -0.7032    1.0381 O.3     1  UNL1       -0.3094
     12 C          -1.6662   -1.5632    0.5125 C.3     1  UNL1        0.1177
     13 C          -3.0526   -0.9567    0.4228 C.3     1  UNL1        0.0880
     14 O          -2.9837    0.1646   -0.3929 O.3     1  UNL1       -0.2841
     15 P          -4.5025    0.8918   -0.5357 P.3     1  UNL1        0.4724
     16 O          -5.5296    0.1883    0.6027 O.3     1  UNL1       -0.3026
     17 O          -4.3101    2.5489   -0.2654 O.3     1  UNL1       -0.3026
     18 O          -5.0343    0.6267   -1.9334 O.2     1  UNL1       -0.2275
     19 C          -1.2606   -1.9370   -0.8802 C.3     1  UNL1        0.1184
     20 O          -0.9767   -3.3159   -0.9030 O.3     1  UNL1       -0.3862
     21 C          -0.0031   -1.1275   -1.1255 C.3     1  UNL1        0.1727
     22 O          -0.1025   -0.5005   -2.3838 O.3     1  UNL1       -0.3803
     23 H           6.5883    0.0170    1.1154 H       1  UNL1        0.1453
     24 H           6.6568    1.5982    0.4687 H       1  UNL1        0.1453
     25 H           4.3959    2.2391    1.7113 H       1  UNL1        0.0629
     26 H           2.1399    2.9890    2.3425 H       1  UNL1        0.0677
     27 H           0.1578    1.8939    1.5449 H       1  UNL1        0.1377
     28 H           2.5148   -0.8144   -0.5985 H       1  UNL1        0.1385
     29 H          -0.6743    0.7143   -0.3692 H       1  UNL1        0.1444
     30 H          -1.7388   -2.4421    1.1701 H       1  UNL1        0.0648
     31 H          -3.4051   -0.6964    1.4532 H       1  UNL1        0.0592
     32 H          -3.7525   -1.6646   -0.0444 H       1  UNL1        0.0592
     33 H          -5.6935   -0.7423    0.2953 H       1  UNL1        0.2220
     34 H          -5.1637    3.0368   -0.2510 H       1  UNL1        0.2220
     35 H          -2.0253   -1.7061   -1.6436 H       1  UNL1        0.0649
     36 H          -0.0961   -3.5205   -1.3054 H       1  UNL1        0.2100
     37 H           0.8321   -1.8146   -1.1725 H       1  UNL1        0.0716
     38 H          -0.6558    0.3147   -2.2336 H       1  UNL1        0.2103
@<TRIPOS>UNITY_ATOM_ATTR
8 1
charge 1
@<TRIPOS>BOND
     1     1     2   am
     2     2     3    2
     3     2     4    1
     4     4     5   ar
     5     5     6   ar
     6     6     7   ar
     7     7     8   ar
     8     8     9   ar
     9     8    10    1
    10    10    11    1
    11    11    12    1
    12    12    13    1
    13    13    14    1
    14    14    15    1
    15    15    16    1
    16    15    17    1
    17    15    18    2
    18    12    19    1
    19    19    20    1
    20    19    21    1
    21    21    22    1
    22     9     4   ar
    23    21    10    1
    24     1    23    1
    25     1    24    1
    26     5    25    1
    27     6    26    1
    28     7    27    1
    29     9    28    1
    30    10    29    1
    31    12    30    1
    32    13    31    1
    33    13    32    1
    34    16    33    1
    35    17    34    1
    36    19    35    1
    37    20    36    1
    38    21    37    1
    39    22    38    1
