
     RDKit          3D

 41 42  0  0  0  0  0  0  0  0999 V2000
   -4.4330    0.3116    2.9699 C   0  0  0  0  0  0  0  0  0  0  0  0
   -4.2953   -0.3008    1.5712 C   0  0  2  0  0  0  0  0  0  0  0  0
   -2.9769   -0.0792    1.0773 N   0  0  0  0  0  0  0  0  0  0  0  0
   -2.7337   -0.7179   -0.1712 C   0  0  0  0  0  0  0  0  0  0  0  0
   -1.3577   -0.4760   -0.6879 C   0  0  0  0  0  0  0  0  0  0  0  0
   -0.3046   -1.3015   -0.3862 C   0  0  0  0  0  0  0  0  0  0  0  0
    0.9781   -1.0632   -0.8767 C   0  0  0  0  0  0  0  0  0  0  0  0
    1.2752    0.0058   -1.6888 C   0  0  0  0  0  0  0  0  0  0  0  0
    2.4724    0.3199   -2.2058 O   0  0  0  0  0  0  0  0  0  0  0  0
    3.7297   -0.1393   -2.1826 C   0  0  0  0  0  0  0  0  0  0  0  0
    4.3216   -0.0908   -0.7983 C   0  0  0  0  0  0  0  0  0  0  0  0
    4.4189   -1.1771    0.0313 C   0  0  0  0  0  0  0  0  0  0  0  0
    4.9631   -1.0422    1.2950 C   0  0  0  0  0  0  0  0  0  0  0  0
    5.4076    0.1882    1.7166 C   0  0  0  0  0  0  0  0  0  0  0  0
    5.3231    1.2974    0.9045 C   0  0  0  0  0  0  0  0  0  0  0  0
    5.7721    2.5248    1.3381 F   0  0  0  0  0  0  0  0  0  0  0  0
    4.7832    1.1538   -0.3432 C   0  0  0  0  0  0  0  0  0  0  0  0
    0.1685    0.8428   -1.9853 C   0  0  0  0  0  0  0  0  0  0  0  0
   -1.0866    0.6023   -1.5007 C   0  0  0  0  0  0  0  0  0  0  0  0
   -5.3658    0.2974    0.7312 C   0  0  0  0  0  0  0  0  0  0  0  0
   -5.1446    1.0567   -0.4351 N   0  0  0  0  0  0  0  0  0  0  0  0
   -6.5512    0.1031    1.1033 O   0  0  0  0  0  0  0  0  0  0  0  0
   -5.5013    0.2924    3.2463 H   0  0  0  0  0  0  0  0  0  0  0  0
   -4.0669    1.3504    2.9802 H   0  0  0  0  0  0  0  0  0  0  0  0
   -3.8778   -0.2831    3.7222 H   0  0  0  0  0  0  0  0  0  0  0  0
   -4.4714   -1.3856    1.6829 H   0  0  0  0  0  0  0  0  0  0  0  0
   -2.6018    0.8652    1.1883 H   0  0  0  0  0  0  0  0  0  0  0  0
   -3.5038   -0.5266   -0.9258 H   0  0  0  0  0  0  0  0  0  0  0  0
   -2.8045   -1.8285    0.0278 H   0  0  0  0  0  0  0  0  0  0  0  0
   -0.4935   -2.1497    0.2469 H   0  0  0  0  0  0  0  0  0  0  0  0
    1.7821   -1.7545   -0.6246 H   0  0  0  0  0  0  0  0  0  0  0  0
    3.8479   -1.2075   -2.5788 H   0  0  0  0  0  0  0  0  0  0  0  0
    4.4205    0.4814   -2.8347 H   0  0  0  0  0  0  0  0  0  0  0  0
    4.0689   -2.1410   -0.3339 H   0  0  0  0  0  0  0  0  0  0  0  0
    5.0207   -1.9298    1.9202 H   0  0  0  0  0  0  0  0  0  0  0  0
    5.8403    0.3076    2.7147 H   0  0  0  0  0  0  0  0  0  0  0  0
    4.6968    1.9992   -1.0160 H   0  0  0  0  0  0  0  0  0  0  0  0
    0.3741    1.6936   -2.6245 H   0  0  0  0  0  0  0  0  0  0  0  0
   -1.9399    1.2564   -1.7353 H   0  0  0  0  0  0  0  0  0  0  0  0
   -4.5682    1.9416   -0.4457 H   0  0  0  0  0  0  0  0  0  0  0  0
   -5.5863    0.7028   -1.3253 H   0  0  0  0  0  0  0  0  0  0  0  0
  1  2  1  0
  2  3  1  0
  3  4  1  0
  4  5  1  0
  5  6  2  0
  6  7  1  0
  7  8  2  0
  8  9  1  0
  9 10  1  0
 10 11  1  0
 11 12  2  0
 12 13  1  0
 13 14  2  0
 14 15  1  0
 15 16  1  0
 15 17  2  0
  8 18  1  0
 18 19  2  0
  2 20  1  0
 20 21  1  0
 20 22  2  0
 19  5  1  0
 17 11  1  0
  1 23  1  0
  1 24  1  0
  1 25  1  0
  2 26  1  1
  3 27  1  0
  4 28  1  0
  4 29  1  0
  6 30  1  0
  7 31  1  0
 10 32  1  0
 10 33  1  0
 12 34  1  0
 13 35  1  0
 14 36  1  0
 17 37  1  0
 18 38  1  0
 19 39  1  0
 21 40  1  0
 21 41  1  0
M  END
$$$$
