@<TRIPOS>MOLECULE
*****
 41 42 0 0 0
SMALL
GASTEIGER

@<TRIPOS>ATOM
      1 C          -4.4330    0.3116    2.9699 C.3     1  UNL1       -0.0412
      2 C          -4.2953   -0.3008    1.5712 C.3     1  UNL1        0.0819
      3 N          -2.9769   -0.0792    1.0773 N.3     1  UNL1       -0.3019
      4 C          -2.7337   -0.7179   -0.1712 C.3     1  UNL1        0.0219
      5 C          -1.3577   -0.4760   -0.6879 C.ar    1  UNL1       -0.0333
      6 C          -0.3046   -1.3015   -0.3862 C.ar    1  UNL1       -0.0539
      7 C           0.9781   -1.0632   -0.8767 C.ar    1  UNL1       -0.0196
      8 C           1.2752    0.0058   -1.6888 C.ar    1  UNL1        0.1210
      9 O           2.4724    0.3199   -2.2058 O.3     1  UNL1       -0.4874
     10 C           3.7297   -0.1393   -2.1826 C.3     1  UNL1        0.1147
     11 C           4.3216   -0.0908   -0.7983 C.ar    1  UNL1       -0.0077
     12 C           4.4189   -1.1771    0.0313 C.ar    1  UNL1       -0.0552
     13 C           4.9631   -1.0422    1.2950 C.ar    1  UNL1       -0.0587
     14 C           5.4076    0.1882    1.7166 C.ar    1  UNL1       -0.0264
     15 C           5.3231    1.2974    0.9045 C.ar    1  UNL1        0.1238
     16 F           5.7721    2.5248    1.3381 F       1  UNL1       -0.2055
     17 C           4.7832    1.1538   -0.3432 C.ar    1  UNL1       -0.0201
     18 C           0.1685    0.8428   -1.9853 C.ar    1  UNL1       -0.0196
     19 C          -1.0866    0.6023   -1.5007 C.ar    1  UNL1       -0.0539
     20 C          -5.3658    0.2974    0.7312 C.2     1  UNL1        0.2273
     21 N          -5.1446    1.0567   -0.4351 N.am    1  UNL1       -0.3280
     22 O          -6.5512    0.1031    1.1033 O.2     1  UNL1       -0.2743
     23 H          -5.5013    0.2924    3.2463 H       1  UNL1        0.0249
     24 H          -4.0669    1.3504    2.9802 H       1  UNL1        0.0249
     25 H          -3.8778   -0.2831    3.7222 H       1  UNL1        0.0249
     26 H          -4.4714   -1.3856    1.6829 H       1  UNL1        0.0553
     27 H          -2.6018    0.8652    1.1883 H       1  UNL1        0.1229
     28 H          -3.5038   -0.5266   -0.9258 H       1  UNL1        0.0474
     29 H          -2.8045   -1.8285    0.0278 H       1  UNL1        0.0474
     30 H          -0.4935   -2.1497    0.2469 H       1  UNL1        0.0622
     31 H           1.7821   -1.7545   -0.6246 H       1  UNL1        0.0654
     32 H           3.8479   -1.2075   -2.5788 H       1  UNL1        0.0748
     33 H           4.4205    0.4814   -2.8347 H       1  UNL1        0.0748
     34 H           4.0689   -2.1410   -0.3339 H       1  UNL1        0.0621
     35 H           5.0207   -1.9298    1.9202 H       1  UNL1        0.0619
     36 H           5.8403    0.3076    2.7147 H       1  UNL1        0.0646
     37 H           4.6968    1.9992   -1.0160 H       1  UNL1        0.0650
     38 H           0.3741    1.6936   -2.6245 H       1  UNL1        0.0654
     39 H          -1.9399    1.2564   -1.7353 H       1  UNL1        0.0622
     40 H          -4.5682    1.9416   -0.4457 H       1  UNL1        0.1450
     41 H          -5.5863    0.7028   -1.3253 H       1  UNL1        0.1450
@<TRIPOS>BOND
     1     1     2    1
     2     2     3    1
     3     3     4    1
     4     4     5    1
     5     5     6   ar
     6     6     7   ar
     7     7     8   ar
     8     8     9    1
     9     9    10    1
    10    10    11    1
    11    11    12   ar
    12    12    13   ar
    13    13    14   ar
    14    14    15   ar
    15    15    16    1
    16    15    17   ar
    17     8    18   ar
    18    18    19   ar
    19     2    20    1
    20    20    21   am
    21    20    22    2
    22    19     5   ar
    23    17    11   ar
    24     1    23    1
    25     1    24    1
    26     1    25    1
    27     2    26    1
    28     3    27    1
    29     4    28    1
    30     4    29    1
    31     6    30    1
    32     7    31    1
    33    10    32    1
    34    10    33    1
    35    12    34    1
    36    13    35    1
    37    14    36    1
    38    17    37    1
    39    18    38    1
    40    19    39    1
    41    21    40    1
    42    21    41    1
