
     RDKit          3D

 31 33  0  0  0  0  0  0  0  0999 V2000
    4.1970   -0.1471    2.5810 C   0  0  0  0  0  0  0  0  0  0  0  0
    3.4499   -0.1209    1.2937 C   0  0  0  0  0  0  0  0  0  0  0  0
    4.0739    0.4342    0.1863 C   0  0  0  0  0  0  0  0  0  0  0  0
    3.3898    0.4613   -1.0056 C   0  0  0  0  0  0  0  0  0  0  0  0
    2.1109   -0.0573   -1.0788 C   0  0  0  0  0  0  0  0  0  0  0  0
    1.2288   -0.1603   -2.0924 N   0  0  0  0  0  0  0  0  0  0  0  0
    0.0979   -0.7517   -1.6542 C   0  0  0  0  0  0  0  0  0  0  0  0
   -1.3215   -1.0653   -2.7186 S   0  0  0  0  0  0  0  0  0  0  0  0
   -2.4362    0.3854   -2.6551 C   0  0  0  0  0  0  0  0  0  0  0  0
   -2.9747    0.4613   -1.2925 C   0  0  0  0  0  0  0  0  0  0  0  0
   -4.1413   -0.1583   -0.8918 C   0  0  0  0  0  0  0  0  0  0  0  0
   -4.5764   -0.0363    0.4099 C   0  0  0  0  0  0  0  0  0  0  0  0
   -3.8439    0.7044    1.3058 C   0  0  0  0  0  0  0  0  0  0  0  0
   -2.6867    1.3142    0.8926 C   0  0  0  0  0  0  0  0  0  0  0  0
   -2.2966    1.1730   -0.3785 N   0  0  0  0  0  0  0  0  0  0  0  0
    0.2581   -1.0267   -0.3595 N   0  0  0  0  0  0  0  0  0  0  0  0
    1.4777   -0.6183    0.0359 C   0  0  0  0  0  0  0  0  0  0  0  0
    2.1747   -0.6415    1.2337 C   0  0  0  0  0  0  0  0  0  0  0  0
    4.5442   -1.2011    2.7169 H   0  0  0  0  0  0  0  0  0  0  0  0
    3.5292    0.0873    3.4465 H   0  0  0  0  0  0  0  0  0  0  0  0
    5.0762    0.5069    2.5630 H   0  0  0  0  0  0  0  0  0  0  0  0
    5.0563    0.8394    0.2171 H   0  0  0  0  0  0  0  0  0  0  0  0
    3.8609    0.8906   -1.8797 H   0  0  0  0  0  0  0  0  0  0  0  0
   -1.8291    1.2746   -2.8637 H   0  0  0  0  0  0  0  0  0  0  0  0
   -3.2047    0.2781   -3.4461 H   0  0  0  0  0  0  0  0  0  0  0  0
   -4.7071   -0.7376   -1.6074 H   0  0  0  0  0  0  0  0  0  0  0  0
   -5.4869   -0.5075    0.7638 H   0  0  0  0  0  0  0  0  0  0  0  0
   -4.1573    0.8262    2.3517 H   0  0  0  0  0  0  0  0  0  0  0  0
   -2.0903    1.9039    1.5791 H   0  0  0  0  0  0  0  0  0  0  0  0
   -0.4483   -1.4867    0.2567 H   0  0  0  0  0  0  0  0  0  0  0  0
    1.6755   -1.0775    2.0903 H   0  0  0  0  0  0  0  0  0  0  0  0
  1  2  1  0
  2  3  2  0
  3  4  1  0
  4  5  2  0
  5  6  1  0
  6  7  2  0
  7  8  1  0
  8  9  1  0
  9 10  1  0
 10 11  2  0
 11 12  1  0
 12 13  2  0
 13 14  1  0
 14 15  2  0
  7 16  1  0
 16 17  1  0
 17 18  2  0
 18  2  1  0
 17  5  1  0
 15 10  1  0
  1 19  1  0
  1 20  1  0
  1 21  1  0
  3 22  1  0
  4 23  1  0
  9 24  1  0
  9 25  1  0
 11 26  1  0
 12 27  1  0
 13 28  1  0
 14 29  1  0
 16 30  1  0
 18 31  1  0
M  END
$$$$
