@<TRIPOS>MOLECULE
*****
 55 58 0 0 0
SMALL
GASTEIGER

@<TRIPOS>ATOM
      1 C           4.3423   -2.8775   -2.8713 C.3     1  UNL1        0.0789
      2 O           3.1709   -2.2130   -2.4498 O.3     1  UNL1       -0.4932
      3 C           3.1674   -1.4717   -1.3167 C.ar    1  UNL1        0.1415
      4 C           1.9572   -0.8584   -0.9897 C.ar    1  UNL1        0.0758
      5 N           0.7755   -0.9620   -1.7863 N.pl3   1  UNL1       -0.2806
      6 C          -0.4882   -0.3315   -1.5688 C.ar    1  UNL1        0.2232
      7 N          -0.8652    0.2328   -2.7321 N.ar    1  UNL1       -0.1963
      8 C          -1.9813    0.9261   -2.9391 C.ar    1  UNL1        0.1451
      9 C          -2.8023    1.0634   -1.8539 C.ar    1  UNL1        0.0588
     10 C          -3.9122    1.8215   -2.2409 C.ar    1  UNL1       -0.0318
     11 C          -3.7073    2.1135   -3.5676 C.ar    1  UNL1        0.0042
     12 N          -2.5453    1.5774   -3.9974 N.ar    1  UNL1       -0.3456
     13 C          -2.4589    0.4970   -0.6189 C.ar    1  UNL1        0.1373
     14 N          -3.2109    0.5592    0.5326 N.pl3   1  UNL1       -0.2981
     15 C          -4.0008    0.4459    1.6820 C.ar    1  UNL1        0.0474
     16 C          -3.4716    0.8230    2.9305 C.ar    1  UNL1       -0.0396
     17 C          -4.1931    0.7689    4.1056 C.ar    1  UNL1       -0.0573
     18 C          -5.4700    0.3043    3.8898 C.ar    1  UNL1       -0.0256
     19 C          -6.0749   -0.0880    2.7175 C.ar    1  UNL1        0.1373
     20 F          -7.3797   -0.5179    2.7776 F       1  UNL1       -0.2046
     21 C          -5.2912   -0.0063    1.5882 C.ar    1  UNL1        0.0927
     22 C          -5.9217   -0.4872    0.3778 C.2     1  UNL1        0.2461
     23 N          -7.2697   -0.8502    0.1989 N.am    1  UNL1       -0.3252
     24 O          -5.2195   -0.6011   -0.6384 O.2     1  UNL1       -0.2703
     25 N          -1.3000   -0.1919   -0.5098 N.ar    1  UNL1       -0.1984
     26 C           1.9147   -0.0893    0.1699 C.ar    1  UNL1       -0.0366
     27 C           3.0137    0.1000    1.0185 C.ar    1  UNL1       -0.0550
     28 C           4.2019   -0.5141    0.6771 C.ar    1  UNL1       -0.0230
     29 C           5.4940   -0.4825    1.4013 C.3     1  UNL1        0.0905
     30 S           6.4721    0.9516    1.0079 S.O2    1  UNL1       -0.0298
     31 C           8.0241    0.9146    1.8636 C.3     1  UNL1        0.0548
     32 O           5.7634    2.2074    1.4646 O.2     1  UNL1       -0.1743
     33 O           6.7269    1.0136   -0.4627 O.2     1  UNL1       -0.1743
     34 C           4.2275   -1.2841   -0.4920 C.ar    1  UNL1       -0.0134
     35 H           4.5859   -3.7279   -2.2230 H       1  UNL1        0.0660
     36 H           5.1876   -2.1520   -2.8375 H       1  UNL1        0.0660
     37 H           4.2218   -3.1941   -3.9518 H       1  UNL1        0.0660
     38 H           0.9121   -1.6004   -2.6259 H       1  UNL1        0.1551
     39 H          -4.6939    2.0543   -1.5326 H       1  UNL1        0.0640
     40 H          -4.3888    2.6850   -4.1540 H       1  UNL1        0.0807
     41 H          -2.1568    1.6513   -4.9576 H       1  UNL1        0.1668
     42 H          -3.0425    1.6080    0.6056 H       1  UNL1        0.1536
     43 H          -2.4372    1.1703    2.9222 H       1  UNL1        0.0636
     44 H          -3.8107    1.0505    5.0560 H       1  UNL1        0.0619
     45 H          -6.0545    0.2548    4.7990 H       1  UNL1        0.0646
     46 H          -7.9595   -1.3612    0.7480 H       1  UNL1        0.1453
     47 H          -7.7833   -0.5724   -0.6809 H       1  UNL1        0.1453
     48 H           1.0280    0.4270    0.5073 H       1  UNL1        0.0637
     49 H           3.0420    0.6777    1.9159 H       1  UNL1        0.0621
     50 H           5.2908   -0.4751    2.5088 H       1  UNL1        0.0549
     51 H           6.0880   -1.3684    1.2034 H       1  UNL1        0.0549
     52 H           8.1894   -0.0416    2.4143 H       1  UNL1        0.0464
     53 H           8.8798    1.0468    1.1512 H       1  UNL1        0.0464
     54 H           8.0918    1.7429    2.5909 H       1  UNL1        0.0464
     55 H           5.1220   -1.7976   -0.8269 H       1  UNL1        0.0658
@<TRIPOS>BOND
     1     1     2    1
     2     2     3    1
     3     3     4   ar
     4     4     5    1
     5     5     6    1
     6     6     7   ar
     7     7     8   ar
     8     8     9   ar
     9     9    10   ar
    10    10    11   ar
    11    11    12   ar
    12     9    13   ar
    13    13    14    1
    14    14    15    1
    15    15    16   ar
    16    16    17   ar
    17    17    18   ar
    18    18    19   ar
    19    19    20    1
    20    19    21   ar
    21    21    22    1
    22    22    23   am
    23    22    24    2
    24    13    25   ar
    25     4    26   ar
    26    26    27   ar
    27    27    28   ar
    28    28    29    1
    29    29    30    1
    30    30    31    1
    31    30    32    2
    32    30    33    2
    33    28    34   ar
    34    34     3   ar
    35    25     6   ar
    36    12     8   ar
    37    21    15   ar
    38     1    35    1
    39     1    36    1
    40     1    37    1
    41     5    38    1
    42    10    39    1
    43    11    40    1
    44    12    41    1
    45    14    42    1
    46    16    43    1
    47    17    44    1
    48    18    45    1
    49    23    46    1
    50    23    47    1
    51    26    48    1
    52    27    49    1
    53    29    50    1
    54    29    51    1
    55    31    52    1
    56    31    53    1
    57    31    54    1
    58    34    55    1
