
     RDKit          3D

 55 58  0  0  0  0  0  0  0  0999 V2000
    4.3423   -2.8775   -2.8713 C   0  0  0  0  0  0  0  0  0  0  0  0
    3.1709   -2.2130   -2.4498 O   0  0  0  0  0  0  0  0  0  0  0  0
    3.1674   -1.4717   -1.3167 C   0  0  0  0  0  0  0  0  0  0  0  0
    1.9572   -0.8584   -0.9897 C   0  0  0  0  0  0  0  0  0  0  0  0
    0.7755   -0.9620   -1.7863 N   0  0  0  0  0  0  0  0  0  0  0  0
   -0.4882   -0.3315   -1.5688 C   0  0  0  0  0  0  0  0  0  0  0  0
   -0.8652    0.2328   -2.7321 N   0  0  0  0  0  0  0  0  0  0  0  0
   -1.9813    0.9261   -2.9391 C   0  0  0  0  0  0  0  0  0  0  0  0
   -2.8023    1.0634   -1.8539 C   0  0  0  0  0  0  0  0  0  0  0  0
   -3.9122    1.8215   -2.2409 C   0  0  0  0  0  0  0  0  0  0  0  0
   -3.7073    2.1135   -3.5676 C   0  0  0  0  0  0  0  0  0  0  0  0
   -2.5453    1.5774   -3.9974 N   0  0  0  0  0  0  0  0  0  0  0  0
   -2.4589    0.4970   -0.6189 C   0  0  0  0  0  0  0  0  0  0  0  0
   -3.2109    0.5592    0.5326 N   0  0  0  0  0  0  0  0  0  0  0  0
   -4.0008    0.4459    1.6820 C   0  0  0  0  0  0  0  0  0  0  0  0
   -3.4716    0.8230    2.9305 C   0  0  0  0  0  0  0  0  0  0  0  0
   -4.1931    0.7689    4.1056 C   0  0  0  0  0  0  0  0  0  0  0  0
   -5.4700    0.3043    3.8898 C   0  0  0  0  0  0  0  0  0  0  0  0
   -6.0749   -0.0880    2.7175 C   0  0  0  0  0  0  0  0  0  0  0  0
   -7.3797   -0.5179    2.7776 F   0  0  0  0  0  0  0  0  0  0  0  0
   -5.2912   -0.0063    1.5882 C   0  0  0  0  0  0  0  0  0  0  0  0
   -5.9217   -0.4872    0.3778 C   0  0  0  0  0  0  0  0  0  0  0  0
   -7.2697   -0.8502    0.1989 N   0  0  0  0  0  0  0  0  0  0  0  0
   -5.2195   -0.6011   -0.6384 O   0  0  0  0  0  0  0  0  0  0  0  0
   -1.3000   -0.1919   -0.5098 N   0  0  0  0  0  0  0  0  0  0  0  0
    1.9147   -0.0893    0.1699 C   0  0  0  0  0  0  0  0  0  0  0  0
    3.0137    0.1000    1.0185 C   0  0  0  0  0  0  0  0  0  0  0  0
    4.2019   -0.5141    0.6771 C   0  0  0  0  0  0  0  0  0  0  0  0
    5.4940   -0.4825    1.4013 C   0  0  0  0  0  0  0  0  0  0  0  0
    6.4721    0.9516    1.0079 S   0  0  0  0  0  0  0  0  0  0  0  0
    8.0241    0.9146    1.8636 C   0  0  0  0  0  0  0  0  0  0  0  0
    5.7634    2.2074    1.4646 O   0  0  0  0  0  0  0  0  0  0  0  0
    6.7269    1.0136   -0.4627 O   0  0  0  0  0  0  0  0  0  0  0  0
    4.2275   -1.2841   -0.4920 C   0  0  0  0  0  0  0  0  0  0  0  0
    4.5859   -3.7279   -2.2230 H   0  0  0  0  0  0  0  0  0  0  0  0
    5.1876   -2.1520   -2.8375 H   0  0  0  0  0  0  0  0  0  0  0  0
    4.2218   -3.1941   -3.9518 H   0  0  0  0  0  0  0  0  0  0  0  0
    0.9121   -1.6004   -2.6259 H   0  0  0  0  0  0  0  0  0  0  0  0
   -4.6939    2.0543   -1.5326 H   0  0  0  0  0  0  0  0  0  0  0  0
   -4.3888    2.6850   -4.1540 H   0  0  0  0  0  0  0  0  0  0  0  0
   -2.1568    1.6513   -4.9576 H   0  0  0  0  0  0  0  0  0  0  0  0
   -3.0425    1.6080    0.6056 H   0  0  0  0  0  0  0  0  0  0  0  0
   -2.4372    1.1703    2.9222 H   0  0  0  0  0  0  0  0  0  0  0  0
   -3.8107    1.0505    5.0560 H   0  0  0  0  0  0  0  0  0  0  0  0
   -6.0545    0.2548    4.7990 H   0  0  0  0  0  0  0  0  0  0  0  0
   -7.9595   -1.3612    0.7480 H   0  0  0  0  0  0  0  0  0  0  0  0
   -7.7833   -0.5724   -0.6809 H   0  0  0  0  0  0  0  0  0  0  0  0
    1.0280    0.4270    0.5073 H   0  0  0  0  0  0  0  0  0  0  0  0
    3.0420    0.6777    1.9159 H   0  0  0  0  0  0  0  0  0  0  0  0
    5.2908   -0.4751    2.5088 H   0  0  0  0  0  0  0  0  0  0  0  0
    6.0880   -1.3684    1.2034 H   0  0  0  0  0  0  0  0  0  0  0  0
    8.1894   -0.0416    2.4143 H   0  0  0  0  0  0  0  0  0  0  0  0
    8.8798    1.0468    1.1512 H   0  0  0  0  0  0  0  0  0  0  0  0
    8.0918    1.7429    2.5909 H   0  0  0  0  0  0  0  0  0  0  0  0
    5.1220   -1.7976   -0.8269 H   0  0  0  0  0  0  0  0  0  0  0  0
  1  2  1  0
  2  3  1  0
  3  4  2  0
  4  5  1  0
  5  6  1  0
  6  7  2  0
  7  8  1  0
  8  9  2  0
  9 10  1  0
 10 11  2  0
 11 12  1  0
  9 13  1  0
 13 14  1  0
 14 15  1  0
 15 16  2  0
 16 17  1  0
 17 18  2  0
 18 19  1  0
 19 20  1  0
 19 21  2  0
 21 22  1  0
 22 23  1  0
 22 24  2  0
 13 25  2  0
  4 26  1  0
 26 27  2  0
 27 28  1  0
 28 29  1  0
 29 30  1  0
 30 31  1  0
 30 32  2  0
 30 33  2  0
 28 34  2  0
 34  3  1  0
 25  6  1  0
 12  8  1  0
 21 15  1  0
  1 35  1  0
  1 36  1  0
  1 37  1  0
  5 38  1  0
 10 39  1  0
 11 40  1  0
 12 41  1  0
 14 42  1  0
 16 43  1  0
 17 44  1  0
 18 45  1  0
 23 46  1  0
 23 47  1  0
 26 48  1  0
 27 49  1  0
 29 50  1  0
 29 51  1  0
 31 52  1  0
 31 53  1  0
 31 54  1  0
 34 55  1  0
M  END
$$$$
