@<TRIPOS>MOLECULE
*****
 39 39 0 0 0
SMALL
GASTEIGER

@<TRIPOS>ATOM
      1 O           5.3289   -0.8492    0.2318 O.2     1  UNL1       -0.2737
      2 C           4.9716    0.2077    0.7982 C.2     1  UNL1        0.2354
      3 C           3.5832    0.3835    1.2254 C.3     1  UNL1        0.0259
      4 C           2.6881   -0.7644    0.8811 C.3     1  UNL1       -0.0447
      5 C           2.5662   -1.0508   -0.5857 C.3     1  UNL1       -0.0526
      6 C           2.0183    0.1321   -1.3246 C.3     1  UNL1       -0.0526
      7 C           0.6668    0.5826   -0.8900 C.3     1  UNL1       -0.0448
      8 C          -0.3701   -0.5001   -1.0614 C.3     1  UNL1        0.0243
      9 C          -1.6825    0.0152   -0.6153 C.2     1  UNL1        0.2172
     10 O          -1.7624    1.1884   -0.1867 O.2     1  UNL1       -0.2755
     11 N          -2.8443   -0.8000   -0.6675 N.am    1  UNL1       -0.2855
     12 C          -4.0976   -0.2849   -0.2334 C.ar    1  UNL1        0.0334
     13 C          -4.4945   -0.4210    1.0952 C.ar    1  UNL1       -0.0405
     14 C          -5.6950    0.0603    1.5591 C.ar    1  UNL1       -0.0600
     15 C          -6.5319    0.7026    0.6608 C.ar    1  UNL1       -0.0616
     16 C          -6.1865    0.8625   -0.6609 C.ar    1  UNL1       -0.0600
     17 C          -4.9721    0.3625   -1.0776 C.ar    1  UNL1       -0.0405
     18 N           5.9739    1.2157    1.0017 N.am    1  UNL1       -0.1975
     19 O           7.2407    1.0221    0.5970 O.3     1  UNL1       -0.2952
     20 H           3.2257    1.3494    0.7697 H       1  UNL1        0.0359
     21 H           3.4991    0.5164    2.3408 H       1  UNL1        0.0359
     22 H           3.1680   -1.6767    1.3386 H       1  UNL1        0.0270
     23 H           1.6869   -0.6238    1.3341 H       1  UNL1        0.0270
     24 H           3.5035   -1.3446   -1.0721 H       1  UNL1        0.0265
     25 H           1.8556   -1.9027   -0.7794 H       1  UNL1        0.0265
     26 H           1.9672   -0.1428   -2.3980 H       1  UNL1        0.0265
     27 H           2.7463    0.9597   -1.2358 H       1  UNL1        0.0265
     28 H           0.6279    0.8950    0.1744 H       1  UNL1        0.0270
     29 H           0.3650    1.4227   -1.5422 H       1  UNL1        0.0270
     30 H          -0.1047   -1.4458   -0.5400 H       1  UNL1        0.0358
     31 H          -0.4488   -0.6960   -2.1634 H       1  UNL1        0.0358
     32 H          -2.8200   -1.7873   -1.0195 H       1  UNL1        0.1548
     33 H          -3.8215   -0.9310    1.7920 H       1  UNL1        0.0636
     34 H          -5.9628   -0.0673    2.5980 H       1  UNL1        0.0618
     35 H          -7.4839    1.0921    0.9971 H       1  UNL1        0.0618
     36 H          -6.8822    1.3715   -1.3086 H       1  UNL1        0.0618
     37 H          -4.6933    0.4830   -2.1103 H       1  UNL1        0.0636
     38 H           5.6566    2.0896    1.4755 H       1  UNL1        0.1822
     39 H           7.5148    0.0848    0.6018 H       1  UNL1        0.2414
@<TRIPOS>BOND
     1     1     2    2
     2     2     3    1
     3     3     4    1
     4     4     5    1
     5     5     6    1
     6     6     7    1
     7     7     8    1
     8     8     9    1
     9     9    10    2
    10     9    11   am
    11    11    12    1
    12    12    13   ar
    13    13    14   ar
    14    14    15   ar
    15    15    16   ar
    16    16    17   ar
    17     2    18   am
    18    18    19    1
    19    17    12   ar
    20     3    20    1
    21     3    21    1
    22     4    22    1
    23     4    23    1
    24     5    24    1
    25     5    25    1
    26     6    26    1
    27     6    27    1
    28     7    28    1
    29     7    29    1
    30     8    30    1
    31     8    31    1
    32    11    32    1
    33    13    33    1
    34    14    34    1
    35    15    35    1
    36    16    36    1
    37    17    37    1
    38    18    38    1
    39    19    39    1
