
     RDKit          3D

 34 34  0  0  0  0  0  0  0  0999 V2000
   -0.3242   -0.3575   -2.9434 C   0  0  0  0  0  0  0  0  0  0  0  0
   -0.6312   -0.7230   -1.4633 C   0  0  0  0  0  0  0  0  0  0  0  0
   -1.0622    0.5066   -0.8605 N   0  0  0  0  0  0  0  0  0  0  0  0
   -1.7979    0.3539    0.3702 C   0  0  0  0  0  0  0  0  0  0  0  0
   -2.0607    1.7418    0.9235 C   0  0  0  0  0  0  0  0  0  0  0  0
   -1.1797   -0.4865    1.4189 C   0  0  0  0  0  0  0  0  0  0  0  0
   -3.1929   -0.2169    0.0955 C   0  0  0  0  0  0  0  0  0  0  0  0
    0.7200   -1.1609   -0.9589 C   0  0  0  0  0  0  0  0  0  0  0  0
    0.9050   -2.3446   -1.4244 O   0  0  0  0  0  0  0  0  0  0  0  0
    1.7346   -0.5351   -0.1290 C   0  0  0  0  0  0  0  0  0  0  0  0
    1.7493    0.7343    0.4067 C   0  0  0  0  0  0  0  0  0  0  0  0
    2.7428    1.2656    1.1938 C   0  0  0  0  0  0  0  0  0  0  0  0
    2.5710    2.8936    1.7726 Cl  0  0  0  0  0  0  0  0  0  0  0  0
    3.8042    0.4266    1.4500 C   0  0  0  0  0  0  0  0  0  0  0  0
    3.8421   -0.8491    0.9414 C   0  0  0  0  0  0  0  0  0  0  0  0
    2.8273   -1.3222    0.1664 C   0  0  0  0  0  0  0  0  0  0  0  0
   -1.2206   -0.5303   -3.5738 H   0  0  0  0  0  0  0  0  0  0  0  0
    0.0108    0.6988   -3.0138 H   0  0  0  0  0  0  0  0  0  0  0  0
    0.4844   -0.9821   -3.3473 H   0  0  0  0  0  0  0  0  0  0  0  0
   -1.3365   -1.5361   -1.4723 H   0  0  0  0  0  0  0  0  0  0  0  0
   -1.6637    0.9929   -1.5442 H   0  0  0  0  0  0  0  0  0  0  0  0
   -2.5511    2.3891    0.1547 H   0  0  0  0  0  0  0  0  0  0  0  0
   -2.6444    1.6739    1.8588 H   0  0  0  0  0  0  0  0  0  0  0  0
   -1.0929    2.2036    1.2036 H   0  0  0  0  0  0  0  0  0  0  0  0
   -0.5160    0.1042    2.0765 H   0  0  0  0  0  0  0  0  0  0  0  0
   -2.0108   -0.8280    2.1091 H   0  0  0  0  0  0  0  0  0  0  0  0
   -0.7398   -1.4345    1.0502 H   0  0  0  0  0  0  0  0  0  0  0  0
   -3.7039    0.3049   -0.7149 H   0  0  0  0  0  0  0  0  0  0  0  0
   -3.0574   -1.2911   -0.0107 H   0  0  0  0  0  0  0  0  0  0  0  0
   -3.7509   -0.0408    1.0453 H   0  0  0  0  0  0  0  0  0  0  0  0
    0.8972    1.3387    0.1677 H   0  0  0  0  0  0  0  0  0  0  0  0
    4.6035    0.8246    2.0710 H   0  0  0  0  0  0  0  0  0  0  0  0
    4.6985   -1.4608    1.1751 H   0  0  0  0  0  0  0  0  0  0  0  0
    2.9461   -2.3535   -0.1946 H   0  0  0  0  0  0  0  0  0  0  0  0
  1  2  1  0
  2  3  1  0
  3  4  1  0
  4  5  1  0
  4  6  1  0
  4  7  1  0
  2  8  1  0
  8  9  2  0
  8 10  1  0
 10 11  2  0
 11 12  1  0
 12 13  1  0
 12 14  2  0
 14 15  1  0
 15 16  2  0
 16 10  1  0
  1 17  1  0
  1 18  1  0
  1 19  1  0
  2 20  1  0
  3 21  1  0
  5 22  1  0
  5 23  1  0
  5 24  1  0
  6 25  1  0
  6 26  1  0
  6 27  1  0
  7 28  1  0
  7 29  1  0
  7 30  1  0
 11 31  1  0
 14 32  1  0
 15 33  1  0
 16 34  1  0
M  END
$$$$
