@<TRIPOS>MOLECULE
*****
 44 46 0 0 0
SMALL
GASTEIGER

@<TRIPOS>ATOM
      1 C           6.7707    1.9686   -0.4632 C.3     1  UNL1       -0.0397
      2 C           5.5276    1.1495   -0.2303 C.ar    1  UNL1       -0.0504
      3 C           5.5873   -0.1985    0.0643 C.ar    1  UNL1       -0.0586
      4 C           4.4095   -0.9092    0.2712 C.ar    1  UNL1       -0.0583
      5 C           3.1638   -0.3217    0.1944 C.ar    1  UNL1       -0.0466
      6 C           1.9325   -1.1220    0.4218 C.3     1  UNL1       -0.0182
      7 C           1.5322   -1.1481    1.8678 C.3     1  UNL1        0.0051
      8 S           0.0261   -2.1376    2.0550 S.3     1  UNL1       -0.0873
      9 C          -1.3577   -1.3312    1.2543 C.ar    1  UNL1        0.1714
     10 N          -2.2130   -0.4273    1.8196 N.ar    1  UNL1       -0.2036
     11 C          -3.1111   -0.0614    0.8903 C.ar    1  UNL1        0.1690
     12 C          -2.7966   -0.7547   -0.2582 C.ar    1  UNL1        0.1520
     13 C          -3.5942   -0.5366   -1.3623 C.ar    1  UNL1        0.2822
     14 O          -3.2962   -1.1753   -2.4027 O.2     1  UNL1       -0.2652
     15 N          -4.6193    0.3179   -1.2826 N.ar    1  UNL1       -0.2622
     16 C          -5.4481    0.5381   -2.4520 C.3     1  UNL1        0.0196
     17 C          -4.8947    0.9844   -0.1219 C.ar    1  UNL1        0.3331
     18 O          -5.8666    1.7767   -0.0929 O.2     1  UNL1       -0.2462
     19 N          -4.1497    0.8072    0.9787 N.ar    1  UNL1       -0.2795
     20 C          -4.4330    1.5014    2.1952 C.3     1  UNL1        0.0181
     21 N          -1.7080   -1.5379   -0.0189 N.ar    1  UNL1       -0.3163
     22 C          -1.1204   -2.3934   -1.0146 C.3     1  UNL1        0.0145
     23 C           3.1149    1.0273   -0.1009 C.ar    1  UNL1       -0.0583
     24 C           4.2825    1.7334   -0.3060 C.ar    1  UNL1       -0.0586
     25 H           6.9904    2.0560   -1.5359 H       1  UNL1        0.0278
     26 H           7.6463    1.4917    0.0311 H       1  UNL1        0.0278
     27 H           6.6512    2.9677    0.0236 H       1  UNL1        0.0278
     28 H           6.5616   -0.6749    0.1281 H       1  UNL1        0.0620
     29 H           4.4730   -1.9725    0.5036 H       1  UNL1        0.0620
     30 H           1.1313   -0.7550   -0.2230 H       1  UNL1        0.0321
     31 H           2.1793   -2.1627    0.1217 H       1  UNL1        0.0321
     32 H           1.4125   -0.1275    2.2656 H       1  UNL1        0.0384
     33 H           2.3475   -1.6410    2.4503 H       1  UNL1        0.0384
     34 H          -6.4425    0.8995   -2.1288 H       1  UNL1        0.0458
     35 H          -4.9844    1.2158   -3.1812 H       1  UNL1        0.0458
     36 H          -5.5833   -0.4545   -2.9256 H       1  UNL1        0.0458
     37 H          -5.5235    1.6485    2.3300 H       1  UNL1        0.0458
     38 H          -3.9653    2.5128    2.2359 H       1  UNL1        0.0458
     39 H          -4.0862    0.9586    3.1044 H       1  UNL1        0.0458
     40 H          -1.9205   -2.9043   -1.6282 H       1  UNL1        0.0456
     41 H          -0.4868   -1.8657   -1.7440 H       1  UNL1        0.0456
     42 H          -0.5183   -3.2220   -0.5903 H       1  UNL1        0.0456
     43 H           2.1285    1.4851   -0.1587 H       1  UNL1        0.0620
     44 H           4.2507    2.7947   -0.5385 H       1  UNL1        0.0620
@<TRIPOS>BOND
     1     1     2    1
     2     2     3   ar
     3     3     4   ar
     4     4     5   ar
     5     5     6    1
     6     6     7    1
     7     7     8    1
     8     8     9    1
     9     9    10   ar
    10    10    11   ar
    11    11    12   ar
    12    12    13   ar
    13    13    14    2
    14    13    15   ar
    15    15    16    1
    16    15    17   ar
    17    17    18    2
    18    17    19   ar
    19    19    20    1
    20    12    21   ar
    21    21    22    1
    22     5    23   ar
    23    23    24   ar
    24    24     2   ar
    25    21     9   ar
    26    19    11   ar
    27     1    25    1
    28     1    26    1
    29     1    27    1
    30     3    28    1
    31     4    29    1
    32     6    30    1
    33     6    31    1
    34     7    32    1
    35     7    33    1
    36    16    34    1
    37    16    35    1
    38    16    36    1
    39    20    37    1
    40    20    38    1
    41    20    39    1
    42    22    40    1
    43    22    41    1
    44    22    42    1
    45    23    43    1
    46    24    44    1
