@<TRIPOS>MOLECULE
*****
 56 59 0 0 0
SMALL
GASTEIGER

@<TRIPOS>ATOM
      1 C          -3.8287   -1.9318    1.2430 C.3     1  UNL1       -0.0489
      2 C          -2.6250   -1.1500    0.8638 C.3     1  UNL1        0.0172
      3 N          -2.7673   -0.1065   -0.0806 N.pl3   1  UNL1       -0.2683
      4 C          -1.5074    0.5186   -0.4104 C.ar    1  UNL1        0.1388
      5 N          -0.5959    0.3624    0.5518 N.ar    1  UNL1       -0.2389
      6 C           0.6692    0.8644    0.4570 C.ar    1  UNL1        0.0330
      7 C           1.0757    1.5686   -0.6537 C.ar    1  UNL1       -0.0252
      8 C           2.4590    2.0854   -0.6998 C.3     1  UNL1        0.0081
      9 C           3.4259    1.1270   -1.3038 C.3     1  UNL1        0.0936
     10 O           3.5806   -0.0916   -0.7014 O.3     1  UNL1       -0.4914
     11 C           4.0348   -0.4650    0.5296 C.ar    1  UNL1        0.1234
     12 C           4.4901    0.3702    1.5114 C.ar    1  UNL1       -0.0189
     13 C           4.9366   -0.1315    2.7408 C.ar    1  UNL1       -0.0443
     14 C           4.9278   -1.4834    2.9902 C.ar    1  UNL1        0.0593
     15 C           5.4027   -1.9863    4.2892 C.2     1  UNL1        0.3368
     16 O           5.4125   -3.2137    4.5455 O.2     1  UNL1       -0.2451
     17 O           5.8512   -1.0831    5.2592 O.3     1  UNL1       -0.4771
     18 C           4.4768   -2.3395    2.0227 C.ar    1  UNL1       -0.0414
     19 C           4.0419   -1.8425    0.8236 C.ar    1  UNL1       -0.0080
     20 C           3.5644   -2.7959   -0.1919 C.3     1  UNL1       -0.0362
     21 C           0.1467    1.7427   -1.6642 C.ar    1  UNL1       -0.0416
     22 C          -1.1416    1.2170   -1.5392 C.ar    1  UNL1        0.0777
     23 C          -1.9750    1.4992   -2.7000 C.2     1  UNL1        0.2540
     24 O          -1.3777    1.8456   -3.7287 O.2     1  UNL1       -0.2695
     25 N          -3.4088    1.4353   -2.8325 N.am    1  UNL1       -0.2674
     26 C          -3.9739    1.9156   -4.0782 C.3     1  UNL1        0.0087
     27 C          -4.2873    0.9410   -1.8270 C.ar    1  UNL1        0.0768
     28 C          -5.5887    1.2146   -2.1726 C.ar    1  UNL1       -0.0355
     29 C          -6.5843    0.8146   -1.3077 C.ar    1  UNL1       -0.0417
     30 C          -6.2684    0.1619   -0.1370 C.ar    1  UNL1        0.0298
     31 N          -5.0018   -0.1098    0.2092 N.ar    1  UNL1       -0.2380
     32 C          -4.0121    0.2747   -0.6267 C.ar    1  UNL1        0.1481
     33 H          -4.4756   -1.4555    2.0250 H       1  UNL1        0.0245
     34 H          -3.4848   -2.8804    1.7822 H       1  UNL1        0.0245
     35 H          -4.4039   -2.3467    0.3881 H       1  UNL1        0.0245
     36 H          -2.2430   -0.6664    1.8170 H       1  UNL1        0.0466
     37 H          -1.7777   -1.8386    0.5818 H       1  UNL1        0.0466
     38 H           1.3742    0.7066    1.2771 H       1  UNL1        0.0833
     39 H           2.7401    2.4088    0.2933 H       1  UNL1        0.0347
     40 H           2.4247    2.9856   -1.3588 H       1  UNL1        0.0347
     41 H           3.2804    1.0510   -2.4212 H       1  UNL1        0.0700
     42 H           4.4374    1.6497   -1.2436 H       1  UNL1        0.0700
     43 H           4.5225    1.4275    1.3481 H       1  UNL1        0.0654
     44 H           5.2960    0.5502    3.5049 H       1  UNL1        0.0627
     45 H           6.1856   -1.4294    6.1505 H       1  UNL1        0.2954
     46 H           4.4818   -3.4098    2.2510 H       1  UNL1        0.0629
     47 H           2.8609   -2.2692   -0.8852 H       1  UNL1        0.0279
     48 H           4.4414   -3.2111   -0.7072 H       1  UNL1        0.0279
     49 H           3.0731   -3.6485    0.3245 H       1  UNL1        0.0279
     50 H           0.4151    2.2855   -2.5519 H       1  UNL1        0.0629
     51 H          -3.0971    2.1274   -4.7618 H       1  UNL1        0.0433
     52 H          -4.4421    2.9272   -3.9436 H       1  UNL1        0.0433
     53 H          -4.5907    1.1967   -4.6143 H       1  UNL1        0.0433
     54 H          -5.8202    1.7198   -3.0815 H       1  UNL1        0.0638
     55 H          -7.6388    1.0183   -1.5575 H       1  UNL1        0.0633
     56 H          -7.1116   -0.1271    0.5044 H       1  UNL1        0.0830
@<TRIPOS>BOND
     1     1     2    1
     2     2     3    1
     3     3     4    1
     4     4     5   ar
     5     5     6   ar
     6     6     7   ar
     7     7     8    1
     8     8     9    1
     9     9    10    1
    10    10    11    1
    11    11    12   ar
    12    12    13   ar
    13    13    14   ar
    14    14    15    1
    15    15    16    2
    16    15    17    1
    17    14    18   ar
    18    18    19   ar
    19    19    20    1
    20     7    21   ar
    21    21    22   ar
    22    22    23    1
    23    23    24    2
    24    23    25   am
    25    25    26    1
    26    25    27    1
    27    27    28   ar
    28    28    29   ar
    29    29    30   ar
    30    30    31   ar
    31    31    32   ar
    32    32     3    1
    33    22     4   ar
    34    32    27   ar
    35    19    11   ar
    36     1    33    1
    37     1    34    1
    38     1    35    1
    39     2    36    1
    40     2    37    1
    41     6    38    1
    42     8    39    1
    43     8    40    1
    44     9    41    1
    45     9    42    1
    46    12    43    1
    47    13    44    1
    48    17    45    1
    49    18    46    1
    50    20    47    1
    51    20    48    1
    52    20    49    1
    53    21    50    1
    54    26    51    1
    55    26    52    1
    56    26    53    1
    57    28    54    1
    58    29    55    1
    59    30    56    1
