@<TRIPOS>MOLECULE
*****
 52 56 0 0 0
SMALL
GASTEIGER

@<TRIPOS>ATOM
      1 C          -2.0904    4.0039   -0.3628 C.3     1  UNL1        0.0817
      2 O          -2.3578    2.6586   -0.6702 O.3     1  UNL1       -0.4677
      3 C          -2.8493    1.7636    0.2696 C.2     1  UNL1        0.3127
      4 O          -3.0506    2.2088    1.4285 O.2     1  UNL1       -0.2504
      5 C          -3.1158    0.3558   -0.1008 C.3     1  UNL1        0.0854
      6 C          -3.6370   -0.4404    1.0418 C.3     1  UNL1        0.0684
      7 O          -4.9998   -0.1194    1.1958 O.3     1  UNL1       -0.3910
      8 C          -3.5315   -1.9173    0.8595 C.3     1  UNL1       -0.0258
      9 C          -3.2438   -2.2416   -0.5873 C.3     1  UNL1       -0.0464
     10 C          -1.9239   -1.6469   -1.0481 C.3     1  UNL1       -0.0244
     11 C          -0.8292   -2.4622   -0.4499 C.3     1  UNL1        0.0026
     12 N           0.4849   -1.9179   -0.5906 N.3     1  UNL1       -0.2934
     13 C           1.2724   -2.4004    0.5101 C.3     1  UNL1        0.0036
     14 C           2.6436   -1.8686    0.5993 C.3     1  UNL1       -0.0125
     15 C           2.8098   -0.4922    0.1145 C.ar    1  UNL1       -0.0164
     16 C           1.7946    0.1297   -0.5322 C.ar    1  UNL1        0.0376
     17 N           2.2520    1.3670   -0.8475 N.ar    1  UNL1       -0.3564
     18 C           3.5137    1.5112   -0.4104 C.ar    1  UNL1        0.0470
     19 C           4.3948    2.5680   -0.4874 C.ar    1  UNL1       -0.0378
     20 C           5.6791    2.4731    0.0542 C.ar    1  UNL1       -0.0598
     21 C           6.0706    1.3128    0.6716 C.ar    1  UNL1       -0.0611
     22 C           5.1719    0.2701    0.7360 C.ar    1  UNL1       -0.0523
     23 C           3.9035    0.3425    0.2097 C.ar    1  UNL1        0.0032
     24 C           0.5108   -0.5096   -0.7807 C.3     1  UNL1        0.0512
     25 C          -0.6222    0.0874    0.0587 C.3     1  UNL1       -0.0279
     26 C          -1.8801   -0.1965   -0.7398 C.3     1  UNL1       -0.0200
     27 H          -1.9959    4.2135    0.7011 H       1  UNL1        0.0661
     28 H          -1.2208    4.3332   -0.9727 H       1  UNL1        0.0661
     29 H          -2.9784    4.5899   -0.7371 H       1  UNL1        0.0661
     30 H          -3.9151    0.3503   -0.8996 H       1  UNL1        0.0442
     31 H          -3.1619   -0.1382    2.0187 H       1  UNL1        0.0601
     32 H          -5.4488   -0.2729    0.3293 H       1  UNL1        0.2098
     33 H          -2.7862   -2.3153    1.5591 H       1  UNL1        0.0290
     34 H          -4.4940   -2.4277    1.1046 H       1  UNL1        0.0290
     35 H          -4.0483   -1.8392   -1.2035 H       1  UNL1        0.0269
     36 H          -3.1806   -3.3657   -0.6437 H       1  UNL1        0.0269
     37 H          -1.8954   -1.8329   -2.1621 H       1  UNL1        0.0316
     38 H          -1.0289   -2.7318    0.6128 H       1  UNL1        0.0429
     39 H          -0.8273   -3.4538   -0.9920 H       1  UNL1        0.0429
     40 H           0.6843   -2.2367    1.4373 H       1  UNL1        0.0430
     41 H           1.3312   -3.5208    0.3891 H       1  UNL1        0.0430
     42 H           2.9766   -1.9221    1.6739 H       1  UNL1        0.0326
     43 H           3.3843   -2.5107    0.0526 H       1  UNL1        0.0326
     44 H           1.7016    2.1014   -1.3569 H       1  UNL1        0.1656
     45 H           4.1573    3.5154   -0.9592 H       1  UNL1        0.0638
     46 H           6.3819    3.2903    0.0031 H       1  UNL1        0.0618
     47 H           7.0782    1.2237    1.1024 H       1  UNL1        0.0618
     48 H           5.4659   -0.6527    1.2203 H       1  UNL1        0.0624
     49 H           0.2547   -0.3231   -1.8667 H       1  UNL1        0.0527
     50 H          -0.6569   -0.4423    1.0143 H       1  UNL1        0.0287
     51 H          -0.4027    1.1597    0.1428 H       1  UNL1        0.0287
     52 H          -1.7452    0.3691   -1.7095 H       1  UNL1        0.0313
@<TRIPOS>BOND
     1     1     2    1
     2     2     3    1
     3     3     4    2
     4     3     5    1
     5     5     6    1
     6     6     7    1
     7     6     8    1
     8     8     9    1
     9     9    10    1
    10    10    11    1
    11    11    12    1
    12    12    13    1
    13    13    14    1
    14    14    15    1
    15    15    16   ar
    16    16    17   ar
    17    17    18   ar
    18    18    19   ar
    19    19    20   ar
    20    20    21   ar
    21    21    22   ar
    22    22    23   ar
    23    16    24    1
    24    24    25    1
    25    25    26    1
    26    26     5    1
    27    26    10    1
    28    24    12    1
    29    23    15   ar
    30    23    18   ar
    31     1    27    1
    32     1    28    1
    33     1    29    1
    34     5    30    1
    35     6    31    1
    36     7    32    1
    37     8    33    1
    38     8    34    1
    39     9    35    1
    40     9    36    1
    41    10    37    1
    42    11    38    1
    43    11    39    1
    44    13    40    1
    45    13    41    1
    46    14    42    1
    47    14    43    1
    48    17    44    1
    49    19    45    1
    50    20    46    1
    51    21    47    1
    52    22    48    1
    53    24    49    1
    54    25    50    1
    55    25    51    1
    56    26    52    1
