
     RDKit          3D

 52 56  0  0  0  0  0  0  0  0999 V2000
   -2.0904    4.0039   -0.3628 C   0  0  0  0  0  0  0  0  0  0  0  0
   -2.3578    2.6586   -0.6702 O   0  0  0  0  0  0  0  0  0  0  0  0
   -2.8493    1.7636    0.2696 C   0  0  0  0  0  0  0  0  0  0  0  0
   -3.0506    2.2088    1.4285 O   0  0  0  0  0  0  0  0  0  0  0  0
   -3.1158    0.3558   -0.1008 C   0  0  2  0  0  0  0  0  0  0  0  0
   -3.6370   -0.4404    1.0418 C   0  0  1  0  0  0  0  0  0  0  0  0
   -4.9998   -0.1194    1.1958 O   0  0  0  0  0  0  0  0  0  0  0  0
   -3.5315   -1.9173    0.8595 C   0  0  0  0  0  0  0  0  0  0  0  0
   -3.2438   -2.2416   -0.5873 C   0  0  0  0  0  0  0  0  0  0  0  0
   -1.9239   -1.6469   -1.0481 C   0  0  2  0  0  0  0  0  0  0  0  0
   -0.8292   -2.4622   -0.4499 C   0  0  0  0  0  0  0  0  0  0  0  0
    0.4849   -1.9179   -0.5906 N   0  0  0  0  0  0  0  0  0  0  0  0
    1.2724   -2.4004    0.5101 C   0  0  0  0  0  0  0  0  0  0  0  0
    2.6436   -1.8686    0.5993 C   0  0  0  0  0  0  0  0  0  0  0  0
    2.8098   -0.4922    0.1145 C   0  0  0  0  0  0  0  0  0  0  0  0
    1.7946    0.1297   -0.5322 C   0  0  0  0  0  0  0  0  0  0  0  0
    2.2520    1.3670   -0.8475 N   0  0  0  0  0  0  0  0  0  0  0  0
    3.5137    1.5112   -0.4104 C   0  0  0  0  0  0  0  0  0  0  0  0
    4.3948    2.5680   -0.4874 C   0  0  0  0  0  0  0  0  0  0  0  0
    5.6791    2.4731    0.0542 C   0  0  0  0  0  0  0  0  0  0  0  0
    6.0706    1.3128    0.6716 C   0  0  0  0  0  0  0  0  0  0  0  0
    5.1719    0.2701    0.7360 C   0  0  0  0  0  0  0  0  0  0  0  0
    3.9035    0.3425    0.2097 C   0  0  0  0  0  0  0  0  0  0  0  0
    0.5108   -0.5096   -0.7807 C   0  0  2  0  0  0  0  0  0  0  0  0
   -0.6222    0.0874    0.0587 C   0  0  0  0  0  0  0  0  0  0  0  0
   -1.8801   -0.1965   -0.7398 C   0  0  2  0  0  0  0  0  0  0  0  0
   -1.9959    4.2135    0.7011 H   0  0  0  0  0  0  0  0  0  0  0  0
   -1.2208    4.3332   -0.9727 H   0  0  0  0  0  0  0  0  0  0  0  0
   -2.9784    4.5899   -0.7371 H   0  0  0  0  0  0  0  0  0  0  0  0
   -3.9151    0.3503   -0.8996 H   0  0  0  0  0  0  0  0  0  0  0  0
   -3.1619   -0.1382    2.0187 H   0  0  0  0  0  0  0  0  0  0  0  0
   -5.4488   -0.2729    0.3293 H   0  0  0  0  0  0  0  0  0  0  0  0
   -2.7862   -2.3153    1.5591 H   0  0  0  0  0  0  0  0  0  0  0  0
   -4.4940   -2.4277    1.1046 H   0  0  0  0  0  0  0  0  0  0  0  0
   -4.0483   -1.8392   -1.2035 H   0  0  0  0  0  0  0  0  0  0  0  0
   -3.1806   -3.3657   -0.6437 H   0  0  0  0  0  0  0  0  0  0  0  0
   -1.8954   -1.8329   -2.1621 H   0  0  0  0  0  0  0  0  0  0  0  0
   -1.0289   -2.7318    0.6128 H   0  0  0  0  0  0  0  0  0  0  0  0
   -0.8273   -3.4538   -0.9920 H   0  0  0  0  0  0  0  0  0  0  0  0
    0.6843   -2.2367    1.4373 H   0  0  0  0  0  0  0  0  0  0  0  0
    1.3312   -3.5208    0.3891 H   0  0  0  0  0  0  0  0  0  0  0  0
    2.9766   -1.9221    1.6739 H   0  0  0  0  0  0  0  0  0  0  0  0
    3.3843   -2.5107    0.0526 H   0  0  0  0  0  0  0  0  0  0  0  0
    1.7016    2.1014   -1.3569 H   0  0  0  0  0  0  0  0  0  0  0  0
    4.1573    3.5154   -0.9592 H   0  0  0  0  0  0  0  0  0  0  0  0
    6.3819    3.2903    0.0031 H   0  0  0  0  0  0  0  0  0  0  0  0
    7.0782    1.2237    1.1024 H   0  0  0  0  0  0  0  0  0  0  0  0
    5.4659   -0.6527    1.2203 H   0  0  0  0  0  0  0  0  0  0  0  0
    0.2547   -0.3231   -1.8667 H   0  0  0  0  0  0  0  0  0  0  0  0
   -0.6569   -0.4423    1.0143 H   0  0  0  0  0  0  0  0  0  0  0  0
   -0.4027    1.1597    0.1428 H   0  0  0  0  0  0  0  0  0  0  0  0
   -1.7452    0.3691   -1.7095 H   0  0  0  0  0  0  0  0  0  0  0  0
  1  2  1  0
  2  3  1  0
  3  4  2  0
  3  5  1  0
  5  6  1  0
  6  7  1  0
  6  8  1  0
  8  9  1  0
  9 10  1  0
 10 11  1  0
 11 12  1  0
 12 13  1  0
 13 14  1  0
 14 15  1  0
 15 16  2  0
 16 17  1  0
 17 18  1  0
 18 19  2  0
 19 20  1  0
 20 21  2  0
 21 22  1  0
 22 23  2  0
 16 24  1  0
 24 25  1  0
 25 26  1  0
 26  5  1  0
 26 10  1  0
 24 12  1  0
 23 15  1  0
 23 18  1  0
  1 27  1  0
  1 28  1  0
  1 29  1  0
  5 30  1  6
  6 31  1  1
  7 32  1  0
  8 33  1  0
  8 34  1  0
  9 35  1  0
  9 36  1  0
 10 37  1  6
 11 38  1  0
 11 39  1  0
 13 40  1  0
 13 41  1  0
 14 42  1  0
 14 43  1  0
 17 44  1  0
 19 45  1  0
 20 46  1  0
 21 47  1  0
 22 48  1  0
 24 49  1  6
 25 50  1  0
 25 51  1  0
 26 52  1  6
M  END
$$$$
