@<TRIPOS>MOLECULE
*****
 41 43 0 0 0
SMALL
GASTEIGER

@<TRIPOS>ATOM
      1 C          -2.9376   -1.3062    1.4599 C.3     1  UNL1       -0.0402
      2 C          -2.8732    0.1722    1.1493 C.3     1  UNL1        0.0575
      3 C          -2.6440    1.0053    2.3712 C.3     1  UNL1       -0.0402
      4 C          -4.1210    0.6304    0.4654 C.3     1  UNL1       -0.0402
      5 N          -1.7134    0.3524    0.2633 N.ar    1  UNL1       -0.2406
      6 N          -0.6328    1.0961    0.4169 N.ar    1  UNL1       -0.1728
      7 C           0.2056    0.9639   -0.6493 C.ar    1  UNL1        0.0799
      8 C           1.5087    1.6349   -0.7123 C.3     1  UNL1        0.0174
      9 C           2.6165    0.7814   -0.2348 C.ar    1  UNL1       -0.0381
     10 C           2.7668    0.7888    1.1648 C.ar    1  UNL1       -0.0166
     11 C           3.7219    0.0753    1.8522 C.ar    1  UNL1        0.1171
     12 O           3.7938    0.1432    3.2285 O.3     1  UNL1       -0.5068
     13 C           4.6011   -0.7063    1.1307 C.ar    1  UNL1       -0.0202
     14 C           4.5069   -0.7571   -0.2509 C.ar    1  UNL1       -0.0580
     15 C           3.5233   -0.0129   -0.8521 C.ar    1  UNL1       -0.0580
     16 C          -0.4622    0.0904   -1.4408 C.ar    1  UNL1        0.0815
     17 C          -1.6641   -0.3263   -0.9238 C.ar    1  UNL1        0.1640
     18 N          -2.4494   -1.1832   -1.5813 N.ar    1  UNL1       -0.2161
     19 C          -2.1014   -1.6735   -2.7748 C.ar    1  UNL1        0.1204
     20 N          -0.9133   -1.2811   -3.3221 N.ar    1  UNL1       -0.2204
     21 C          -0.1209   -0.4220   -2.6670 C.ar    1  UNL1        0.1305
     22 N           1.0476   -0.0733   -3.3303 N.pl3   1  UNL1       -0.3425
     23 H          -1.9888   -1.8406    1.1672 H       1  UNL1        0.0253
     24 H          -3.1282   -1.4767    2.5270 H       1  UNL1        0.0253
     25 H          -3.7261   -1.8007    0.8633 H       1  UNL1        0.0253
     26 H          -1.7061    0.6620    2.8737 H       1  UNL1        0.0253
     27 H          -2.4387    2.0404    2.0229 H       1  UNL1        0.0253
     28 H          -3.5151    1.0430    3.0474 H       1  UNL1        0.0253
     29 H          -4.9539    0.6760    1.1882 H       1  UNL1        0.0253
     30 H          -3.9385    1.6250    0.0180 H       1  UNL1        0.0253
     31 H          -4.3961   -0.0918   -0.3295 H       1  UNL1        0.0253
     32 H           1.4812    2.5453   -0.0842 H       1  UNL1        0.0377
     33 H           1.6956    1.9167   -1.7742 H       1  UNL1        0.0377
     34 H           2.1101    1.3837    1.7972 H       1  UNL1        0.0657
     35 H           4.4828   -0.3307    3.7910 H       1  UNL1        0.2921
     36 H           5.3548   -1.2707    1.6607 H       1  UNL1        0.0654
     37 H           5.1533   -1.3393   -0.8546 H       1  UNL1        0.0619
     38 H           3.4373   -0.0316   -1.9081 H       1  UNL1        0.0620
     39 H          -2.8445   -2.3505   -3.1700 H       1  UNL1        0.1048
     40 H           1.9910   -0.0486   -3.7471 H       1  UNL1        0.1437
     41 H           1.2711    0.8275   -3.8514 H       1  UNL1        0.1437
@<TRIPOS>BOND
     1     1     2    1
     2     2     3    1
     3     2     4    1
     4     2     5    1
     5     5     6   ar
     6     6     7   ar
     7     7     8    1
     8     8     9    1
     9     9    10   ar
    10    10    11   ar
    11    11    12    1
    12    11    13   ar
    13    13    14   ar
    14    14    15   ar
    15     7    16   ar
    16    16    17   ar
    17    17    18   ar
    18    18    19   ar
    19    19    20   ar
    20    20    21   ar
    21    21    22    1
    22    17     5   ar
    23    15     9   ar
    24    21    16   ar
    25     1    23    1
    26     1    24    1
    27     1    25    1
    28     3    26    1
    29     3    27    1
    30     3    28    1
    31     4    29    1
    32     4    30    1
    33     4    31    1
    34     8    32    1
    35     8    33    1
    36    10    34    1
    37    12    35    1
    38    13    36    1
    39    14    37    1
    40    15    38    1
    41    19    39    1
    42    22    40    1
    43    22    41    1
