
     RDKit          3D

 65 69  0  0  0  0  0  0  0  0999 V2000
   -0.2077   -2.2638   -2.5167 C   0  0  0  0  0  0  0  0  0  0  0  0
   -1.1436   -2.5379   -1.4249 C   0  0  0  0  0  0  0  0  0  0  0  0
   -1.9604   -3.6703   -1.5293 C   0  0  0  0  0  0  0  0  0  0  0  0
   -2.8681   -3.9993   -0.5533 C   0  0  0  0  0  0  0  0  0  0  0  0
   -2.9692   -3.1867    0.5531 C   0  0  0  0  0  0  0  0  0  0  0  0
   -2.1661   -2.0776    0.6510 C   0  0  0  0  0  0  0  0  0  0  0  0
   -1.2398   -1.7234   -0.3230 C   0  0  0  0  0  0  0  0  0  0  0  0
   -0.3927   -0.5189   -0.1672 C   0  0  0  0  0  0  0  0  0  0  0  0
   -1.2283    0.6505    0.2816 C   0  0  0  0  0  0  0  0  0  0  0  0
   -0.9804    1.3484    1.2803 O   0  0  0  0  0  0  0  0  0  0  0  0
   -2.3926    1.0067   -0.4724 N   0  0  0  0  0  0  0  0  0  0  0  0
   -3.2640    2.0887   -0.1531 C   0  0  0  0  0  0  0  0  0  0  0  0
   -4.6990    1.7012   -0.0049 C   0  0  0  0  0  0  0  0  0  0  0  0
   -5.4467    2.9758   -0.3333 C   0  0  0  0  0  0  0  0  0  0  0  0
   -4.6681    3.5650   -1.4668 C   0  0  0  0  0  0  0  0  0  0  0  0
   -3.2648    3.0530   -1.3472 C   0  0  0  0  0  0  0  0  0  0  0  0
    0.7145   -0.7546    0.7369 N   0  0  0  0  0  0  0  0  0  0  0  0
    2.0767   -0.5247    0.3060 C   0  0  0  0  0  0  0  0  0  0  0  0
    3.0462   -0.8068    1.0661 O   0  0  0  0  0  0  0  0  0  0  0  0
    2.3872    0.0459   -1.0274 C   0  0  0  0  0  0  0  0  0  0  0  0
    3.8327    0.1847   -1.1706 N   0  0  0  0  0  0  0  0  0  0  0  0
    4.5919   -0.8122   -1.6831 C   0  0  0  0  0  0  0  0  0  0  0  0
    5.8670   -0.3873   -1.6866 N   0  0  0  0  0  0  0  0  0  0  0  0
    5.9258    0.8682   -1.1820 C   0  0  0  0  0  0  0  0  0  0  0  0
    6.9256    1.7782   -0.9492 C   0  0  0  0  0  0  0  0  0  0  0  0
    6.6875    3.0183   -0.4098 C   0  0  0  0  0  0  0  0  0  0  0  0
    5.3809    3.3312   -0.1005 C   0  0  0  0  0  0  0  0  0  0  0  0
    4.3294    2.4447   -0.3165 C   0  0  0  0  0  0  0  0  0  0  0  0
    4.6126    1.2120   -0.8593 C   0  0  0  0  0  0  0  0  0  0  0  0
    0.5815   -1.2731    2.0530 C   0  0  0  0  0  0  0  0  0  0  0  0
    0.6010   -0.4795    3.1666 C   0  0  0  0  0  0  0  0  0  0  0  0
    0.4400   -1.1194    4.4029 C   0  0  0  0  0  0  0  0  0  0  0  0
    0.2728   -2.4790    4.4698 C   0  0  0  0  0  0  0  0  0  0  0  0
    0.2524   -3.2884    3.3512 C   0  0  0  0  0  0  0  0  0  0  0  0
    0.0850   -4.6260    3.4656 F   0  0  0  0  0  0  0  0  0  0  0  0
    0.4115   -2.6464    2.1417 C   0  0  0  0  0  0  0  0  0  0  0  0
   -0.4939   -2.8757   -3.3945 H   0  0  0  0  0  0  0  0  0  0  0  0
   -0.2107   -1.2171   -2.8816 H   0  0  0  0  0  0  0  0  0  0  0  0
    0.8160   -2.6173   -2.2322 H   0  0  0  0  0  0  0  0  0  0  0  0
   -1.8705   -4.2923   -2.3951 H   0  0  0  0  0  0  0  0  0  0  0  0
   -3.5083   -4.8719   -0.6175 H   0  0  0  0  0  0  0  0  0  0  0  0
   -3.6812   -3.4132    1.3554 H   0  0  0  0  0  0  0  0  0  0  0  0
   -2.2488   -1.4396    1.5246 H   0  0  0  0  0  0  0  0  0  0  0  0
    0.0190   -0.2144   -1.1336 H   0  0  0  0  0  0  0  0  0  0  0  0
   -2.5984    0.4209   -1.3087 H   0  0  0  0  0  0  0  0  0  0  0  0
   -2.9455    2.6430    0.7675 H   0  0  0  0  0  0  0  0  0  0  0  0
   -5.0091    0.8772   -0.6657 H   0  0  0  0  0  0  0  0  0  0  0  0
   -4.9621    1.4409    1.0571 H   0  0  0  0  0  0  0  0  0  0  0  0
   -6.5063    2.7499   -0.5932 H   0  0  0  0  0  0  0  0  0  0  0  0
   -5.4188    3.6237    0.5857 H   0  0  0  0  0  0  0  0  0  0  0  0
   -4.6565    4.6843   -1.4376 H   0  0  0  0  0  0  0  0  0  0  0  0
   -5.1397    3.2595   -2.4290 H   0  0  0  0  0  0  0  0  0  0  0  0
   -2.9623    2.5198   -2.2643 H   0  0  0  0  0  0  0  0  0  0  0  0
   -2.5287    3.8445   -1.0990 H   0  0  0  0  0  0  0  0  0  0  0  0
    1.9487    1.0630   -1.1381 H   0  0  0  0  0  0  0  0  0  0  0  0
    1.9916   -0.5600   -1.8639 H   0  0  0  0  0  0  0  0  0  0  0  0
    4.2461   -1.7804   -2.0304 H   0  0  0  0  0  0  0  0  0  0  0  0
    7.9354    1.4937   -1.2058 H   0  0  0  0  0  0  0  0  0  0  0  0
    7.4822    3.7420   -0.2247 H   0  0  0  0  0  0  0  0  0  0  0  0
    5.1144    4.2876    0.3272 H   0  0  0  0  0  0  0  0  0  0  0  0
    3.3127    2.6737   -0.0818 H   0  0  0  0  0  0  0  0  0  0  0  0
    0.7440    0.5894    3.1456 H   0  0  0  0  0  0  0  0  0  0  0  0
    0.4568   -0.4700    5.2894 H   0  0  0  0  0  0  0  0  0  0  0  0
    0.1485   -2.9659    5.4356 H   0  0  0  0  0  0  0  0  0  0  0  0
    0.3947   -3.2924    1.2599 H   0  0  0  0  0  0  0  0  0  0  0  0
  1  2  1  0
  2  3  2  0
  3  4  1  0
  4  5  2  0
  5  6  1  0
  6  7  2  0
  7  8  1  0
  8  9  1  0
  9 10  2  0
  9 11  1  0
 11 12  1  0
 12 13  1  0
 13 14  1  0
 14 15  1  0
 15 16  1  0
  8 17  1  0
 17 18  1  0
 18 19  2  0
 18 20  1  0
 20 21  1  0
 21 22  1  0
 22 23  2  0
 23 24  1  0
 24 25  2  0
 25 26  1  0
 26 27  2  0
 27 28  1  0
 28 29  2  0
 17 30  1  0
 30 31  2  0
 31 32  1  0
 32 33  2  0
 33 34  1  0
 34 35  1  0
 34 36  2  0
  7  2  1  0
 16 12  1  0
 29 21  1  0
 36 30  1  0
 29 24  1  0
  1 37  1  0
  1 38  1  0
  1 39  1  0
  3 40  1  0
  4 41  1  0
  5 42  1  0
  6 43  1  0
  8 44  1  0
 11 45  1  0
 12 46  1  0
 13 47  1  0
 13 48  1  0
 14 49  1  0
 14 50  1  0
 15 51  1  0
 15 52  1  0
 16 53  1  0
 16 54  1  0
 20 55  1  0
 20 56  1  0
 22 57  1  0
 25 58  1  0
 26 59  1  0
 27 60  1  0
 28 61  1  0
 31 62  1  0
 32 63  1  0
 33 64  1  0
 36 65  1  0
M  END
$$$$
