@<TRIPOS>MOLECULE
*****
 65 69 0 0 0
SMALL
GASTEIGER

@<TRIPOS>ATOM
      1 C          -0.2077   -2.2638   -2.5167 C.3     1  UNL1       -0.0394
      2 C          -1.1436   -2.5379   -1.4249 C.ar    1  UNL1       -0.0450
      3 C          -1.9604   -3.6703   -1.5293 C.ar    1  UNL1       -0.0585
      4 C          -2.8681   -3.9993   -0.5533 C.ar    1  UNL1       -0.0615
      5 C          -2.9692   -3.1867    0.5531 C.ar    1  UNL1       -0.0614
      6 C          -2.1661   -2.0776    0.6510 C.ar    1  UNL1       -0.0561
      7 C          -1.2398   -1.7234   -0.3230 C.ar    1  UNL1       -0.0150
      8 C          -0.3927   -0.5189   -0.1672 C.3     1  UNL1        0.1323
      9 C          -1.2283    0.6505    0.2816 C.2     1  UNL1        0.2387
     10 O          -0.9804    1.3484    1.2803 O.2     1  UNL1       -0.2734
     11 N          -2.3926    1.0067   -0.4724 N.am    1  UNL1       -0.3106
     12 C          -3.2640    2.0887   -0.1531 C.3     1  UNL1        0.0232
     13 C          -4.6990    1.7012   -0.0049 C.3     1  UNL1       -0.0345
     14 C          -5.4467    2.9758   -0.3333 C.3     1  UNL1       -0.0513
     15 C          -4.6681    3.5650   -1.4668 C.3     1  UNL1       -0.0513
     16 C          -3.2648    3.0530   -1.3472 C.3     1  UNL1       -0.0345
     17 N           0.7145   -0.7546    0.7369 N.am    1  UNL1       -0.2538
     18 C           2.0767   -0.5247    0.3060 C.2     1  UNL1        0.2405
     19 O           3.0462   -0.8068    1.0661 O.2     1  UNL1       -0.2733
     20 C           2.3872    0.0459   -1.0274 C.3     1  UNL1        0.1014
     21 N           3.8327    0.1847   -1.1706 N.ar    1  UNL1       -0.3211
     22 C           4.5919   -0.8122   -1.6831 C.ar    1  UNL1        0.0975
     23 N           5.8670   -0.3873   -1.6866 N.ar    1  UNL1       -0.2357
     24 C           5.9258    0.8682   -1.1820 C.ar    1  UNL1        0.0890
     25 C           6.9256    1.7782   -0.9492 C.ar    1  UNL1       -0.0342
     26 C           6.6875    3.0183   -0.4098 C.ar    1  UNL1       -0.0596
     27 C           5.3809    3.3312   -0.1005 C.ar    1  UNL1       -0.0597
     28 C           4.3294    2.4447   -0.3165 C.ar    1  UNL1       -0.0361
     29 C           4.6126    1.2120   -0.8593 C.ar    1  UNL1        0.0690
     30 C           0.5815   -1.2731    2.0530 C.ar    1  UNL1        0.0402
     31 C           0.6010   -0.4795    3.1666 C.ar    1  UNL1       -0.0401
     32 C           0.4400   -1.1194    4.4029 C.ar    1  UNL1       -0.0573
     33 C           0.2728   -2.4790    4.4698 C.ar    1  UNL1       -0.0263
     34 C           0.2524   -3.2884    3.3512 C.ar    1  UNL1        0.1252
     35 F           0.0850   -4.6260    3.4656 F       1  UNL1       -0.2054
     36 C           0.4115   -2.6464    2.1417 C.ar    1  UNL1       -0.0050
     37 H          -0.4939   -2.8757   -3.3945 H       1  UNL1        0.0278
     38 H          -0.2107   -1.2171   -2.8816 H       1  UNL1        0.0278
     39 H           0.8160   -2.6173   -2.2322 H       1  UNL1        0.0278
     40 H          -1.8705   -4.2923   -2.3951 H       1  UNL1        0.0620
     41 H          -3.5083   -4.8719   -0.6175 H       1  UNL1        0.0618
     42 H          -3.6812   -3.4132    1.3554 H       1  UNL1        0.0618
     43 H          -2.2488   -1.4396    1.5246 H       1  UNL1        0.0621
     44 H           0.0190   -0.2144   -1.1336 H       1  UNL1        0.0651
     45 H          -2.5984    0.4209   -1.3087 H       1  UNL1        0.1490
     46 H          -2.9455    2.6430    0.7675 H       1  UNL1        0.0498
     47 H          -5.0091    0.8772   -0.6657 H       1  UNL1        0.0283
     48 H          -4.9621    1.4409    1.0571 H       1  UNL1        0.0283
     49 H          -6.5063    2.7499   -0.5932 H       1  UNL1        0.0266
     50 H          -5.4188    3.6237    0.5857 H       1  UNL1        0.0266
     51 H          -4.6565    4.6843   -1.4376 H       1  UNL1        0.0266
     52 H          -5.1397    3.2595   -2.4290 H       1  UNL1        0.0266
     53 H          -2.9623    2.5198   -2.2643 H       1  UNL1        0.0283
     54 H          -2.5287    3.8445   -1.0990 H       1  UNL1        0.0283
     55 H           1.9487    1.0630   -1.1381 H       1  UNL1        0.0588
     56 H           1.9916   -0.5600   -1.8639 H       1  UNL1        0.0588
     57 H           4.2461   -1.7804   -2.0304 H       1  UNL1        0.1029
     58 H           7.9354    1.4937   -1.2058 H       1  UNL1        0.0639
     59 H           7.4822    3.7420   -0.2247 H       1  UNL1        0.0618
     60 H           5.1144    4.2876    0.3272 H       1  UNL1        0.0618
     61 H           3.3127    2.6737   -0.0818 H       1  UNL1        0.0639
     62 H           0.7440    0.5894    3.1456 H       1  UNL1        0.0636
     63 H           0.4568   -0.4700    5.2894 H       1  UNL1        0.0619
     64 H           0.1485   -2.9659    5.4356 H       1  UNL1        0.0646
     65 H           0.3947   -3.2924    1.2599 H       1  UNL1        0.0665
@<TRIPOS>BOND
     1     1     2    1
     2     2     3   ar
     3     3     4   ar
     4     4     5   ar
     5     5     6   ar
     6     6     7   ar
     7     7     8    1
     8     8     9    1
     9     9    10    2
    10     9    11   am
    11    11    12    1
    12    12    13    1
    13    13    14    1
    14    14    15    1
    15    15    16    1
    16     8    17    1
    17    17    18   am
    18    18    19    2
    19    18    20    1
    20    20    21    1
    21    21    22   ar
    22    22    23   ar
    23    23    24   ar
    24    24    25   ar
    25    25    26   ar
    26    26    27   ar
    27    27    28   ar
    28    28    29   ar
    29    17    30    1
    30    30    31   ar
    31    31    32   ar
    32    32    33   ar
    33    33    34   ar
    34    34    35    1
    35    34    36   ar
    36     7     2   ar
    37    16    12    1
    38    29    21   ar
    39    36    30   ar
    40    29    24   ar
    41     1    37    1
    42     1    38    1
    43     1    39    1
    44     3    40    1
    45     4    41    1
    46     5    42    1
    47     6    43    1
    48     8    44    1
    49    11    45    1
    50    12    46    1
    51    13    47    1
    52    13    48    1
    53    14    49    1
    54    14    50    1
    55    15    51    1
    56    15    52    1
    57    16    53    1
    58    16    54    1
    59    20    55    1
    60    20    56    1
    61    22    57    1
    62    25    58    1
    63    26    59    1
    64    27    60    1
    65    28    61    1
    66    31    62    1
    67    32    63    1
    68    33    64    1
    69    36    65    1
