
     RDKit          3D

 50 51  0  0  0  0  0  0  0  0999 V2000
   -2.5972   -0.5998   -0.4596 C   0  0  2  0  0  0  0  0  0  0  0  0
   -2.6671   -1.5638   -1.5523 N   0  0  0  0  0  0  0  0  0  0  0  0
   -3.1536    0.7285   -0.9178 C   0  0  0  0  0  0  0  0  0  0  0  0
   -4.5879    0.6262   -1.3544 C   0  0  0  0  0  0  0  0  0  0  0  0
   -4.8122   -0.3235   -2.5046 C   0  0  0  0  0  0  0  0  0  0  0  0
   -5.5267    0.3423   -0.2010 C   0  0  0  0  0  0  0  0  0  0  0  0
   -1.2014   -0.5136   -0.0088 C   0  0  0  0  0  0  0  0  0  0  0  0
   -0.8312   -1.3307   -0.8829 O   0  0  0  0  0  0  0  0  0  0  0  0
   -0.6406    0.2507    1.0352 N   0  0  0  0  0  0  0  0  0  0  0  0
   -1.4283    1.1243    1.8819 C   0  0  0  0  0  0  0  0  0  0  0  0
   -0.7883    1.1517    3.2273 C   0  0  0  0  0  0  0  0  0  0  0  0
    0.3936    0.2283    3.0648 C   0  0  0  0  0  0  0  0  0  0  0  0
    0.6543    0.4339    1.5639 C   0  0  1  0  0  0  0  0  0  0  0  0
    1.7113   -0.4700    1.0935 C   0  0  0  0  0  0  0  0  0  0  0  0
    1.4951   -1.4007    0.2795 O   0  0  0  0  0  0  0  0  0  0  0  0
    3.0241   -0.2649    1.5928 N   0  0  0  0  0  0  0  0  0  0  0  0
    4.1818   -1.0573    1.2382 C   0  0  0  0  0  0  0  0  0  0  0  0
    4.6378   -0.6375   -0.1060 C   0  0  0  0  0  0  0  0  0  0  0  0
    5.5412    0.4294   -0.1621 C   0  0  0  0  0  0  0  0  0  0  0  0
    6.0685    0.9371   -1.3315 C   0  0  0  0  0  0  0  0  0  0  0  0
    7.1972    2.2795   -1.3055 Cl  0  0  0  0  0  0  0  0  0  0  0  0
    5.6849    0.3592   -2.5450 C   0  0  0  0  0  0  0  0  0  0  0  0
    4.7961   -0.6929   -2.5141 C   0  0  0  0  0  0  0  0  0  0  0  0
    4.2939   -1.1689   -1.3226 C   0  0  0  0  0  0  0  0  0  0  0  0
   -3.2356   -0.9770    0.3454 H   0  0  0  0  0  0  0  0  0  0  0  0
   -2.0825   -1.2128   -2.3282 H   0  0  0  0  0  0  0  0  0  0  0  0
   -2.3485   -2.4689   -1.1857 H   0  0  0  0  0  0  0  0  0  0  0  0
   -2.5807    1.0214   -1.8355 H   0  0  0  0  0  0  0  0  0  0  0  0
   -3.1037    1.4740   -0.1285 H   0  0  0  0  0  0  0  0  0  0  0  0
   -4.8615    1.6527   -1.7395 H   0  0  0  0  0  0  0  0  0  0  0  0
   -4.0118   -0.1278   -3.2535 H   0  0  0  0  0  0  0  0  0  0  0  0
   -4.9342   -1.3705   -2.2173 H   0  0  0  0  0  0  0  0  0  0  0  0
   -5.7537    0.0320   -3.0200 H   0  0  0  0  0  0  0  0  0  0  0  0
   -6.4622    0.9201   -0.3352 H   0  0  0  0  0  0  0  0  0  0  0  0
   -5.7532   -0.7508   -0.1498 H   0  0  0  0  0  0  0  0  0  0  0  0
   -5.0633    0.7269    0.7268 H   0  0  0  0  0  0  0  0  0  0  0  0
   -1.4777    2.1580    1.4887 H   0  0  0  0  0  0  0  0  0  0  0  0
   -2.4356    0.6663    2.0127 H   0  0  0  0  0  0  0  0  0  0  0  0
   -1.4609    0.8387    4.0494 H   0  0  0  0  0  0  0  0  0  0  0  0
   -0.3547    2.1694    3.4172 H   0  0  0  0  0  0  0  0  0  0  0  0
    1.2498    0.4981    3.6869 H   0  0  0  0  0  0  0  0  0  0  0  0
    0.0610   -0.8212    3.2038 H   0  0  0  0  0  0  0  0  0  0  0  0
    0.9919    1.4894    1.4055 H   0  0  0  0  0  0  0  0  0  0  0  0
    3.1778    0.5212    2.2719 H   0  0  0  0  0  0  0  0  0  0  0  0
    5.0079   -0.8593    1.9644 H   0  0  0  0  0  0  0  0  0  0  0  0
    3.9105   -2.1355    1.2451 H   0  0  0  0  0  0  0  0  0  0  0  0
    5.8676    0.9114    0.7703 H   0  0  0  0  0  0  0  0  0  0  0  0
    6.1090    0.7720   -3.4487 H   0  0  0  0  0  0  0  0  0  0  0  0
    4.4855   -1.1541   -3.4383 H   0  0  0  0  0  0  0  0  0  0  0  0
    3.6138   -1.9821   -1.3170 H   0  0  0  0  0  0  0  0  0  0  0  0
  1  2  1  0
  1  3  1  0
  3  4  1  0
  4  5  1  0
  4  6  1  0
  1  7  1  0
  7  8  2  0
  7  9  1  0
  9 10  1  0
 10 11  1  0
 11 12  1  0
 12 13  1  0
 13 14  1  0
 14 15  2  0
 14 16  1  0
 16 17  1  0
 17 18  1  0
 18 19  2  0
 19 20  1  0
 20 21  1  0
 20 22  2  0
 22 23  1  0
 23 24  2  0
 13  9  1  0
 24 18  1  0
  1 25  1  1
  2 26  1  0
  2 27  1  0
  3 28  1  0
  3 29  1  0
  4 30  1  0
  5 31  1  0
  5 32  1  0
  5 33  1  0
  6 34  1  0
  6 35  1  0
  6 36  1  0
 10 37  1  0
 10 38  1  0
 11 39  1  0
 11 40  1  0
 12 41  1  0
 12 42  1  0
 13 43  1  1
 16 44  1  0
 17 45  1  0
 17 46  1  0
 19 47  1  0
 22 48  1  0
 23 49  1  0
 24 50  1  0
M  END
$$$$
