@<TRIPOS>MOLECULE
*****
 50 51 0 0 0
SMALL
GASTEIGER

@<TRIPOS>ATOM
      1 C          -2.5972   -0.5998   -0.4596 C.3     1  UNL1        0.0827
      2 N          -2.6671   -1.5638   -1.5523 N.3     1  UNL1       -0.3199
      3 C          -3.1536    0.7285   -0.9178 C.3     1  UNL1       -0.0269
      4 C          -4.5879    0.6262   -1.3544 C.3     1  UNL1       -0.0449
      5 C          -4.8122   -0.3235   -2.5046 C.3     1  UNL1       -0.0626
      6 C          -5.5267    0.3423   -0.2010 C.3     1  UNL1       -0.0626
      7 C          -1.2014   -0.5136   -0.0088 C.2     1  UNL1        0.2330
      8 O          -0.8312   -1.3307   -0.8829 O.2     1  UNL1       -0.2739
      9 N          -0.6406    0.2507    1.0352 N.am    1  UNL1       -0.2886
     10 C          -1.4283    1.1243    1.8819 C.3     1  UNL1        0.0156
     11 C          -0.7883    1.1517    3.2273 C.3     1  UNL1       -0.0350
     12 C           0.3936    0.2283    3.0648 C.3     1  UNL1       -0.0243
     13 C           0.6543    0.4339    1.5639 C.3     1  UNL1        0.1022
     14 C           1.7113   -0.4700    1.0935 C.2     1  UNL1        0.2338
     15 O           1.4951   -1.4007    0.2795 O.2     1  UNL1       -0.2738
     16 N           3.0241   -0.2649    1.5928 N.am    1  UNL1       -0.3097
     17 C           4.1818   -1.0573    1.2382 C.3     1  UNL1        0.0369
     18 C           4.6378   -0.6375   -0.1060 C.ar    1  UNL1       -0.0289
     19 C           5.5412    0.4294   -0.1621 C.ar    1  UNL1       -0.0387
     20 C           6.0685    0.9371   -1.3315 C.ar    1  UNL1        0.0413
     21 CL          7.1972    2.2795   -1.3055 Cl      1  UNL1       -0.0835
     22 C           5.6849    0.3592   -2.5450 C.ar    1  UNL1       -0.0434
     23 C           4.7961   -0.6929   -2.5141 C.ar    1  UNL1       -0.0601
     24 C           4.2939   -1.1689   -1.3226 C.ar    1  UNL1       -0.0570
     25 H          -3.2356   -0.9770    0.3454 H       1  UNL1        0.0554
     26 H          -2.0825   -1.2128   -2.3282 H       1  UNL1        0.1189
     27 H          -2.3485   -2.4689   -1.1857 H       1  UNL1        0.1189
     28 H          -2.5807    1.0214   -1.8355 H       1  UNL1        0.0287
     29 H          -3.1037    1.4740   -0.1285 H       1  UNL1        0.0287
     30 H          -4.8615    1.6527   -1.7395 H       1  UNL1        0.0296
     31 H          -4.0118   -0.1278   -3.2535 H       1  UNL1        0.0232
     32 H          -4.9342   -1.3705   -2.2173 H       1  UNL1        0.0232
     33 H          -5.7537    0.0320   -3.0200 H       1  UNL1        0.0232
     34 H          -6.4622    0.9201   -0.3352 H       1  UNL1        0.0232
     35 H          -5.7532   -0.7508   -0.1498 H       1  UNL1        0.0232
     36 H          -5.0633    0.7269    0.7268 H       1  UNL1        0.0232
     37 H          -1.4777    2.1580    1.4887 H       1  UNL1        0.0465
     38 H          -2.4356    0.6663    2.0127 H       1  UNL1        0.0465
     39 H          -1.4609    0.8387    4.0494 H       1  UNL1        0.0281
     40 H          -0.3547    2.1694    3.4172 H       1  UNL1        0.0281
     41 H           1.2498    0.4981    3.6869 H       1  UNL1        0.0288
     42 H           0.0610   -0.8212    3.2038 H       1  UNL1        0.0288
     43 H           0.9919    1.4894    1.4055 H       1  UNL1        0.0597
     44 H           3.1778    0.5212    2.2719 H       1  UNL1        0.1491
     45 H           5.0079   -0.8593    1.9644 H       1  UNL1        0.0512
     46 H           3.9105   -2.1355    1.2451 H       1  UNL1        0.0512
     47 H           5.8676    0.9114    0.7703 H       1  UNL1        0.0635
     48 H           6.1090    0.7720   -3.4487 H       1  UNL1        0.0632
     49 H           4.4855   -1.1541   -3.4383 H       1  UNL1        0.0618
     50 H           3.6138   -1.9821   -1.3170 H       1  UNL1        0.0621
@<TRIPOS>BOND
     1     1     2    1
     2     1     3    1
     3     3     4    1
     4     4     5    1
     5     4     6    1
     6     1     7    1
     7     7     8    2
     8     7     9   am
     9     9    10    1
    10    10    11    1
    11    11    12    1
    12    12    13    1
    13    13    14    1
    14    14    15    2
    15    14    16   am
    16    16    17    1
    17    17    18    1
    18    18    19   ar
    19    19    20   ar
    20    20    21    1
    21    20    22   ar
    22    22    23   ar
    23    23    24   ar
    24    13     9    1
    25    24    18   ar
    26     1    25    1
    27     2    26    1
    28     2    27    1
    29     3    28    1
    30     3    29    1
    31     4    30    1
    32     5    31    1
    33     5    32    1
    34     5    33    1
    35     6    34    1
    36     6    35    1
    37     6    36    1
    38    10    37    1
    39    10    38    1
    40    11    39    1
    41    11    40    1
    42    12    41    1
    43    12    42    1
    44    13    43    1
    45    16    44    1
    46    17    45    1
    47    17    46    1
    48    19    47    1
    49    22    48    1
    50    23    49    1
    51    24    50    1
