
     RDKit          3D

 52 54  0  0  0  0  0  0  0  0999 V2000
    7.7790    0.9933    2.1295 C   0  0  0  0  0  0  0  0  0  0  0  0
    7.0563    0.2260    1.5487 C   0  0  0  0  0  0  0  0  0  0  0  0
    6.2042   -0.7148    0.8538 C   0  0  0  0  0  0  0  0  0  0  0  0
    6.7140   -1.8552    0.2824 C   0  0  0  0  0  0  0  0  0  0  0  0
    5.8682   -2.7326   -0.3721 C   0  0  0  0  0  0  0  0  0  0  0  0
    4.5235   -2.4737   -0.4562 C   0  0  0  0  0  0  0  0  0  0  0  0
    3.9716   -1.3202    0.1148 C   0  0  0  0  0  0  0  0  0  0  0  0
    2.5778   -1.0839    0.0329 N   0  0  0  0  0  0  0  0  0  0  0  0
    2.0833    0.2363    0.0043 C   0  0  0  0  0  0  0  0  0  0  0  0
    2.8790    1.3176   -0.0605 N   0  0  0  0  0  0  0  0  0  0  0  0
    2.5044    2.5853   -0.0914 C   0  0  0  0  0  0  0  0  0  0  0  0
    1.1745    2.8748   -0.0555 N   0  0  0  0  0  0  0  0  0  0  0  0
    0.3172    1.8386    0.0099 C   0  0  0  0  0  0  0  0  0  0  0  0
   -1.0203    2.1332    0.0463 C   0  0  0  0  0  0  0  0  0  0  0  0
   -2.0027    1.1749    0.1139 C   0  0  0  0  0  0  0  0  0  0  0  0
   -3.3590    1.4858    0.1501 O   0  0  0  0  0  0  0  0  0  0  0  0
   -3.7007    2.8596    0.1150 C   0  0  0  0  0  0  0  0  0  0  0  0
   -5.2008    3.0277    0.1579 C   0  0  0  0  0  0  0  0  0  0  0  0
   -5.6050    4.3334    0.1281 O   0  0  0  0  0  0  0  0  0  0  0  0
   -5.2132    5.0318   -0.9852 C   0  0  0  0  0  0  0  0  0  0  0  0
   -1.5841   -0.1658    0.1459 C   0  0  0  0  0  0  0  0  0  0  0  0
   -2.5580   -1.0993    0.2094 O   0  0  0  0  0  0  0  0  0  0  0  0
   -2.6029   -2.4650    0.2285 C   0  0  0  0  0  0  0  0  0  0  0  0
   -2.0688   -3.0733   -1.0289 C   0  0  0  0  0  0  0  0  0  0  0  0
   -2.0903   -4.4625   -1.0529 O   0  0  0  0  0  0  0  0  0  0  0  0
   -3.3342   -5.0296   -0.9358 C   0  0  0  0  0  0  0  0  0  0  0  0
   -0.2452   -0.4749    0.1106 C   0  0  0  0  0  0  0  0  0  0  0  0
    0.7189    0.5217    0.0417 C   0  0  0  0  0  0  0  0  0  0  0  0
    4.8360   -0.4736    0.7556 C   0  0  0  0  0  0  0  0  0  0  0  0
    8.4256    1.6967    2.6396 H   0  0  0  0  0  0  0  0  0  0  0  0
    7.7764   -2.0541    0.3509 H   0  0  0  0  0  0  0  0  0  0  0  0
    6.3075   -3.6152   -0.8057 H   0  0  0  0  0  0  0  0  0  0  0  0
    3.8565   -3.1477   -0.9615 H   0  0  0  0  0  0  0  0  0  0  0  0
    1.9482   -1.9045   -0.0078 H   0  0  0  0  0  0  0  0  0  0  0  0
    3.2587    3.3505   -0.1439 H   0  0  0  0  0  0  0  0  0  0  0  0
   -1.3604    3.1725    0.0222 H   0  0  0  0  0  0  0  0  0  0  0  0
   -3.2738    3.2579   -0.8415 H   0  0  0  0  0  0  0  0  0  0  0  0
   -3.2142    3.3246    1.0070 H   0  0  0  0  0  0  0  0  0  0  0  0
   -5.6146    2.4410    0.9842 H   0  0  0  0  0  0  0  0  0  0  0  0
   -5.5888    2.5353   -0.7820 H   0  0  0  0  0  0  0  0  0  0  0  0
   -5.6479    4.5175   -1.8855 H   0  0  0  0  0  0  0  0  0  0  0  0
   -4.1302    5.0806   -1.1431 H   0  0  0  0  0  0  0  0  0  0  0  0
   -5.5951    6.0676   -1.0178 H   0  0  0  0  0  0  0  0  0  0  0  0
   -3.6457   -2.8436    0.4512 H   0  0  0  0  0  0  0  0  0  0  0  0
   -1.9383   -2.8616    1.0607 H   0  0  0  0  0  0  0  0  0  0  0  0
   -2.7330   -2.6785   -1.8591 H   0  0  0  0  0  0  0  0  0  0  0  0
   -1.0655   -2.7664   -1.3151 H   0  0  0  0  0  0  0  0  0  0  0  0
   -3.1612   -6.1484   -0.9832 H   0  0  0  0  0  0  0  0  0  0  0  0
   -3.9636   -4.8156   -1.8486 H   0  0  0  0  0  0  0  0  0  0  0  0
   -3.8793   -4.7820   -0.0112 H   0  0  0  0  0  0  0  0  0  0  0  0
    0.1030   -1.4857    0.1534 H   0  0  0  0  0  0  0  0  0  0  0  0
    4.5129    0.4434    1.2460 H   0  0  0  0  0  0  0  0  0  0  0  0
  1  2  3  0
  2  3  1  0
  3  4  2  0
  4  5  1  0
  5  6  2  0
  6  7  1  0
  7  8  1  0
  8  9  1  0
  9 10  2  0
 10 11  1  0
 11 12  2  0
 12 13  1  0
 13 14  2  0
 14 15  1  0
 15 16  1  0
 16 17  1  0
 17 18  1  0
 18 19  1  0
 19 20  1  0
 15 21  2  0
 21 22  1  0
 22 23  1  0
 23 24  1  0
 24 25  1  0
 25 26  1  0
 21 27  1  0
 27 28  2  0
  7 29  2  0
 29  3  1  0
 28  9  1  0
 28 13  1  0
  1 30  1  0
  4 31  1  0
  5 32  1  0
  6 33  1  0
  8 34  1  0
 11 35  1  0
 14 36  1  0
 17 37  1  0
 17 38  1  0
 18 39  1  0
 18 40  1  0
 20 41  1  0
 20 42  1  0
 20 43  1  0
 23 44  1  0
 23 45  1  0
 24 46  1  0
 24 47  1  0
 26 48  1  0
 26 49  1  0
 26 50  1  0
 27 51  1  0
 29 52  1  0
M  END
$$$$
