@<TRIPOS>MOLECULE
*****
 52 54 0 0 0
SMALL
GASTEIGER

@<TRIPOS>ATOM
      1 C           7.7790    0.9933    2.1295 C.1     1  UNL1       -0.1139
      2 C           7.0563    0.2260    1.5487 C.1     1  UNL1       -0.0696
      3 C           6.2042   -0.7148    0.8538 C.ar    1  UNL1        0.0264
      4 C           6.7140   -1.8552    0.2824 C.ar    1  UNL1       -0.0462
      5 C           5.8682   -2.7326   -0.3721 C.ar    1  UNL1       -0.0589
      6 C           4.5235   -2.4737   -0.4562 C.ar    1  UNL1       -0.0404
      7 C           3.9716   -1.3202    0.1148 C.ar    1  UNL1        0.0335
      8 N           2.5778   -1.0839    0.0329 N.pl3   1  UNL1       -0.2988
      9 C           2.0833    0.2363    0.0043 C.ar    1  UNL1        0.1340
     10 N           2.8790    1.3176   -0.0605 N.ar    1  UNL1       -0.2200
     11 C           2.5044    2.5853   -0.0914 C.ar    1  UNL1        0.1187
     12 N           1.1745    2.8748   -0.0555 N.ar    1  UNL1       -0.2352
     13 C           0.3172    1.8386    0.0099 C.ar    1  UNL1        0.0797
     14 C          -1.0203    2.1332    0.0463 C.ar    1  UNL1        0.0098
     15 C          -2.0027    1.1749    0.1139 C.ar    1  UNL1        0.1641
     16 O          -3.3590    1.4858    0.1501 O.3     1  UNL1       -0.4860
     17 C          -3.7007    2.8596    0.1150 C.3     1  UNL1        0.1130
     18 C          -5.2008    3.0277    0.1579 C.3     1  UNL1        0.0814
     19 O          -5.6050    4.3334    0.1281 O.3     1  UNL1       -0.3796
     20 C          -5.2132    5.0318   -0.9852 C.3     1  UNL1        0.0366
     21 C          -1.5841   -0.1658    0.1459 C.ar    1  UNL1        0.1628
     22 O          -2.5580   -1.0993    0.2094 O.3     1  UNL1       -0.4860
     23 C          -2.6029   -2.4650    0.2285 C.3     1  UNL1        0.1130
     24 C          -2.0688   -3.0733   -1.0289 C.3     1  UNL1        0.0814
     25 O          -2.0903   -4.4625   -1.0529 O.3     1  UNL1       -0.3796
     26 C          -3.3342   -5.0296   -0.9358 C.3     1  UNL1        0.0366
     27 C          -0.2452   -0.4749    0.1106 C.ar    1  UNL1       -0.0038
     28 C           0.7189    0.5217    0.0417 C.ar    1  UNL1        0.0441
     29 C           4.8360   -0.4736    0.7556 C.ar    1  UNL1       -0.0251
     30 H           8.4256    1.6967    2.6396 H       1  UNL1        0.1232
     31 H           7.7764   -2.0541    0.3509 H       1  UNL1        0.0630
     32 H           6.3075   -3.6152   -0.8057 H       1  UNL1        0.0619
     33 H           3.8565   -3.1477   -0.9615 H       1  UNL1        0.0636
     34 H           1.9482   -1.9045   -0.0078 H       1  UNL1        0.1536
     35 H           3.2587    3.3505   -0.1439 H       1  UNL1        0.1048
     36 H          -1.3604    3.1725    0.0222 H       1  UNL1        0.0677
     37 H          -3.2738    3.2579   -0.8415 H       1  UNL1        0.0720
     38 H          -3.2142    3.3246    1.0070 H       1  UNL1        0.0720
     39 H          -5.6146    2.4410    0.9842 H       1  UNL1        0.0593
     40 H          -5.5888    2.5353   -0.7820 H       1  UNL1        0.0593
     41 H          -5.6479    4.5175   -1.8855 H       1  UNL1        0.0524
     42 H          -4.1302    5.0806   -1.1431 H       1  UNL1        0.0524
     43 H          -5.5951    6.0676   -1.0178 H       1  UNL1        0.0524
     44 H          -3.6457   -2.8436    0.4512 H       1  UNL1        0.0720
     45 H          -1.9383   -2.8616    1.0607 H       1  UNL1        0.0720
     46 H          -2.7330   -2.6785   -1.8591 H       1  UNL1        0.0593
     47 H          -1.0655   -2.7664   -1.3151 H       1  UNL1        0.0593
     48 H          -3.1612   -6.1484   -0.9832 H       1  UNL1        0.0524
     49 H          -3.9636   -4.8156   -1.8486 H       1  UNL1        0.0524
     50 H          -3.8793   -4.7820   -0.0112 H       1  UNL1        0.0524
     51 H           0.1030   -1.4857    0.1534 H       1  UNL1        0.0663
     52 H           4.5129    0.4434    1.2460 H       1  UNL1        0.0648
@<TRIPOS>BOND
     1     1     2    3
     2     2     3    1
     3     3     4   ar
     4     4     5   ar
     5     5     6   ar
     6     6     7   ar
     7     7     8    1
     8     8     9    1
     9     9    10   ar
    10    10    11   ar
    11    11    12   ar
    12    12    13   ar
    13    13    14   ar
    14    14    15   ar
    15    15    16    1
    16    16    17    1
    17    17    18    1
    18    18    19    1
    19    19    20    1
    20    15    21   ar
    21    21    22    1
    22    22    23    1
    23    23    24    1
    24    24    25    1
    25    25    26    1
    26    21    27   ar
    27    27    28   ar
    28     7    29   ar
    29    29     3   ar
    30    28     9   ar
    31    28    13   ar
    32     1    30    1
    33     4    31    1
    34     5    32    1
    35     6    33    1
    36     8    34    1
    37    11    35    1
    38    14    36    1
    39    17    37    1
    40    17    38    1
    41    18    39    1
    42    18    40    1
    43    20    41    1
    44    20    42    1
    45    20    43    1
    46    23    44    1
    47    23    45    1
    48    24    46    1
    49    24    47    1
    50    26    48    1
    51    26    49    1
    52    26    50    1
    53    27    51    1
    54    29    52    1
