
     RDKit          3D

 44 45  0  0  0  0  0  0  0  0999 V2000
    3.0832    1.3808    2.2882 C   0  0  0  0  0  0  0  0  0  0  0  0
    3.5596    1.7391    1.0125 O   0  0  0  0  0  0  0  0  0  0  0  0
    2.9100    1.2792   -0.1237 C   0  0  0  0  0  0  0  0  0  0  0  0
    3.4138    1.6571   -1.3606 C   0  0  0  0  0  0  0  0  0  0  0  0
    2.7379    1.1776   -2.4529 C   0  0  0  0  0  0  0  0  0  0  0  0
    1.6369    0.3781   -2.3763 C   0  0  0  0  0  0  0  0  0  0  0  0
    1.1358    0.0020   -1.1256 C   0  0  0  0  0  0  0  0  0  0  0  0
    1.7977    0.4711   -0.0139 C   0  0  0  0  0  0  0  0  0  0  0  0
   -0.0686   -0.8719   -1.1332 C   0  0  1  0  0  0  0  0  0  0  0  0
   -0.8127   -0.6137   -2.3076 O   0  0  0  0  0  0  0  0  0  0  0  0
    0.3536   -2.3284   -1.1463 C   0  0  0  0  0  0  0  0  0  0  0  0
   -0.4313   -3.1864   -0.1989 C   0  0  0  0  0  0  0  0  0  0  0  0
   -1.8984   -2.8878   -0.2303 C   0  0  0  0  0  0  0  0  0  0  0  0
   -2.2207   -1.4351   -0.1270 C   0  0  0  0  0  0  0  0  0  0  0  0
   -0.9911   -0.5673    0.0221 C   0  0  2  0  0  0  0  0  0  0  0  0
   -1.3427    0.8811   -0.0478 C   0  0  0  0  0  0  0  0  0  0  0  0
   -2.2255    1.2498    1.0286 N   0  0  0  0  0  0  0  0  0  0  0  0
   -2.5938    2.6449    1.0019 C   0  0  0  0  0  0  0  0  0  0  0  0
   -1.7107    0.8877    2.3343 C   0  0  0  0  0  0  0  0  0  0  0  0
    2.9691    0.2781    2.3132 H   0  0  0  0  0  0  0  0  0  0  0  0
    3.8412    1.6945    3.0514 H   0  0  0  0  0  0  0  0  0  0  0  0
    2.1298    1.9068    2.4973 H   0  0  0  0  0  0  0  0  0  0  0  0
    4.2784    2.2849   -1.4060 H   0  0  0  0  0  0  0  0  0  0  0  0
    3.1215    1.4657   -3.4237 H   0  0  0  0  0  0  0  0  0  0  0  0
    1.1744    0.0518   -3.2963 H   0  0  0  0  0  0  0  0  0  0  0  0
    1.3849    0.1619    0.9519 H   0  0  0  0  0  0  0  0  0  0  0  0
   -0.4189   -1.2052   -3.0079 H   0  0  0  0  0  0  0  0  0  0  0  0
    1.4138   -2.3698   -0.8047 H   0  0  0  0  0  0  0  0  0  0  0  0
    0.3251   -2.6845   -2.1856 H   0  0  0  0  0  0  0  0  0  0  0  0
   -0.0546   -3.1484    0.8280 H   0  0  0  0  0  0  0  0  0  0  0  0
   -0.3214   -4.2402   -0.5741 H   0  0  0  0  0  0  0  0  0  0  0  0
   -2.3716   -3.4894    0.5942 H   0  0  0  0  0  0  0  0  0  0  0  0
   -2.3104   -3.3341   -1.1823 H   0  0  0  0  0  0  0  0  0  0  0  0
   -2.7808   -1.0502   -1.0229 H   0  0  0  0  0  0  0  0  0  0  0  0
   -2.9238   -1.2632    0.7363 H   0  0  0  0  0  0  0  0  0  0  0  0
   -0.4640   -0.8467    0.9488 H   0  0  0  0  0  0  0  0  0  0  0  0
   -0.4426    1.4897   -0.1438 H   0  0  0  0  0  0  0  0  0  0  0  0
   -1.9233    1.0452   -0.9879 H   0  0  0  0  0  0  0  0  0  0  0  0
   -1.9375    3.2240    0.3235 H   0  0  0  0  0  0  0  0  0  0  0  0
   -2.5629    3.1033    2.0121 H   0  0  0  0  0  0  0  0  0  0  0  0
   -3.6489    2.6974    0.6426 H   0  0  0  0  0  0  0  0  0  0  0  0
   -1.8817    1.6966    3.0886 H   0  0  0  0  0  0  0  0  0  0  0  0
   -0.6362    0.6708    2.3277 H   0  0  0  0  0  0  0  0  0  0  0  0
   -2.2923    0.0035    2.6759 H   0  0  0  0  0  0  0  0  0  0  0  0
  1  2  1  0
  2  3  1  0
  3  4  2  0
  4  5  1  0
  5  6  2  0
  6  7  1  0
  7  8  2  0
  7  9  1  0
  9 10  1  6
  9 11  1  0
 11 12  1  0
 12 13  1  0
 13 14  1  0
 14 15  1  0
 15 16  1  0
 16 17  1  0
 17 18  1  0
 17 19  1  0
  8  3  1  0
 15  9  1  0
  1 20  1  0
  1 21  1  0
  1 22  1  0
  4 23  1  0
  5 24  1  0
  6 25  1  0
  8 26  1  0
 10 27  1  0
 11 28  1  0
 11 29  1  0
 12 30  1  0
 12 31  1  0
 13 32  1  0
 13 33  1  0
 14 34  1  0
 14 35  1  0
 15 36  1  1
 16 37  1  0
 16 38  1  0
 18 39  1  0
 18 40  1  0
 18 41  1  0
 19 42  1  0
 19 43  1  0
 19 44  1  0
M  END
$$$$
