@<TRIPOS>MOLECULE
*****
 46 50 0 0 0
SMALL
GASTEIGER

@<TRIPOS>ATOM
      1 O          -2.6197   -3.9329    0.0918 O.2     1  UNL1       -0.2446
      2 C          -1.5257   -3.3366    0.1510 C.ar    1  UNL1        0.3489
      3 N          -0.3183   -3.8758    0.3706 N.ar    1  UNL1       -0.2260
      4 N           0.5509   -2.8649    0.3488 N.ar    1  UNL1       -0.1509
      5 C          -0.1083   -1.7132    0.1187 C.ar    1  UNL1        0.1693
      6 C           0.5307   -0.4093    0.0343 C.ar    1  UNL1        0.0243
      7 C          -0.0413    0.7515    0.5115 C.ar    1  UNL1       -0.0327
      8 C           0.6589    1.9326    0.3967 C.ar    1  UNL1        0.0304
      9 N           1.8738    2.0162   -0.1569 N.ar    1  UNL1       -0.2402
     10 C           2.4823    0.8960   -0.6437 C.ar    1  UNL1        0.1235
     11 N           3.7821    0.9441   -1.2125 N.pl3   1  UNL1       -0.2994
     12 C           4.9175    0.5505   -0.4553 C.ar    1  UNL1        0.0324
     13 C           6.2090    0.6426   -0.8997 C.ar    1  UNL1       -0.0405
     14 C           7.2696    0.2230   -0.1011 C.ar    1  UNL1       -0.0600
     15 C           7.0689   -0.2912    1.1442 C.ar    1  UNL1       -0.0616
     16 C           5.7576   -0.3877    1.6038 C.ar    1  UNL1       -0.0600
     17 C           4.7046    0.0216    0.8280 C.ar    1  UNL1       -0.0405
     18 C           1.7880   -0.2802   -0.5317 C.ar    1  UNL1       -0.0109
     19 N          -1.4040   -1.9899   -0.0072 N.ar    1  UNL1       -0.2437
     20 C          -2.4255   -1.0421   -0.2608 C.ar    1  UNL1        0.0535
     21 C          -2.3882   -0.2933   -1.4173 C.ar    1  UNL1       -0.0370
     22 C          -3.3888    0.6420   -1.7042 C.ar    1  UNL1       -0.0521
     23 C          -4.4280    0.8168   -0.8159 C.ar    1  UNL1       -0.0178
     24 C          -5.4400    1.7154   -1.0439 C.ar    1  UNL1       -0.0540
     25 C          -6.4808    1.9053   -0.1844 C.ar    1  UNL1       -0.0612
     26 C          -6.5492    1.1690    0.9879 C.ar    1  UNL1       -0.0612
     27 C          -5.5463    0.2669    1.2317 C.ar    1  UNL1       -0.0540
     28 C          -4.5002    0.0787    0.3633 C.ar    1  UNL1       -0.0159
     29 C          -3.4842   -0.8285    0.5923 C.ar    1  UNL1       -0.0299
     30 H          -0.0517   -4.8699    0.5330 H       1  UNL1        0.1937
     31 H          -1.0238    0.7023    0.9629 H       1  UNL1        0.0640
     32 H           0.2200    2.8653    0.7690 H       1  UNL1        0.0830
     33 H           3.9043    1.2647   -2.1776 H       1  UNL1        0.1536
     34 H           6.4077    1.0465   -1.8827 H       1  UNL1        0.0636
     35 H           8.3017    0.2954   -0.4503 H       1  UNL1        0.0618
     36 H           7.8645   -0.6180    1.7679 H       1  UNL1        0.0618
     37 H           5.6184   -0.8007    2.5970 H       1  UNL1        0.0618
     38 H           3.6985   -0.0635    1.2070 H       1  UNL1        0.0636
     39 H           2.2531   -1.1778   -0.9110 H       1  UNL1        0.0659
     40 H          -1.5908   -0.3900   -2.1538 H       1  UNL1        0.0638
     41 H          -3.3703    1.2321   -2.6039 H       1  UNL1        0.0624
     42 H          -5.4000    2.2948   -1.9545 H       1  UNL1        0.0624
     43 H          -7.2917    2.6175   -0.3585 H       1  UNL1        0.0618
     44 H          -7.3877    1.3141    1.6903 H       1  UNL1        0.0618
     45 H          -5.5810   -0.3135    2.1335 H       1  UNL1        0.0624
     46 H          -3.5166   -1.4054    1.4918 H       1  UNL1        0.0644
@<TRIPOS>BOND
     1     1     2    2
     2     2     3   ar
     3     3     4   ar
     4     4     5   ar
     5     5     6    1
     6     6     7   ar
     7     7     8   ar
     8     8     9   ar
     9     9    10   ar
    10    10    11    1
    11    11    12    1
    12    12    13   ar
    13    13    14   ar
    14    14    15   ar
    15    15    16   ar
    16    16    17   ar
    17    10    18   ar
    18     5    19   ar
    19    19    20    1
    20    20    21   ar
    21    21    22   ar
    22    22    23   ar
    23    23    24   ar
    24    24    25   ar
    25    25    26   ar
    26    26    27   ar
    27    27    28   ar
    28    28    29   ar
    29    19     2   ar
    30    29    20   ar
    31    18     6   ar
    32    28    23   ar
    33    17    12   ar
    34     3    30    1
    35     7    31    1
    36     8    32    1
    37    11    33    1
    38    13    34    1
    39    14    35    1
    40    15    36    1
    41    16    37    1
    42    17    38    1
    43    18    39    1
    44    21    40    1
    45    22    41    1
    46    24    42    1
    47    25    43    1
    48    26    44    1
    49    27    45    1
    50    29    46    1
