@<TRIPOS>MOLECULE
*****
 92 96 0 0 0
SMALL
GASTEIGER

@<TRIPOS>ATOM
      1 C          -3.8729    3.2071    1.8335 C.3     1  UNL1       -0.0442
      2 C          -3.7306    3.4386    0.3223 C.3     1  UNL1        0.0262
      3 C          -2.3785    4.0466    0.0670 C.3     1  UNL1       -0.0442
      4 C          -4.8138    4.4191   -0.0540 C.3     1  UNL1       -0.0442
      5 N          -3.9351    2.1960   -0.3976 N.am    1  UNL1       -0.3092
      6 C          -3.1224    1.0514   -0.2454 C.2     1  UNL1        0.2319
      7 O          -2.1737    1.1642    0.5707 O.2     1  UNL1       -0.2740
      8 C          -3.2983   -0.2393   -0.9546 C.3     1  UNL1        0.1002
      9 C          -4.6709   -0.8239   -0.6339 C.3     1  UNL1        0.0234
     10 N          -4.6296   -1.4703    0.6195 N.3     1  UNL1       -0.2950
     11 C          -5.8120   -1.6266    1.3490 C.3     1  UNL1        0.0256
     12 C          -6.9290   -2.3269    0.6411 C.ar    1  UNL1       -0.0153
     13 C          -7.0889   -3.6860    0.6669 C.ar    1  UNL1       -0.0545
     14 C          -8.1395   -4.2525   -0.0035 C.ar    1  UNL1       -0.0433
     15 C          -9.0210   -3.4418   -0.6960 C.ar    1  UNL1        0.0276
     16 N          -8.8382   -2.1152   -0.7024 N.ar    1  UNL1       -0.2629
     17 C          -7.8145   -1.5305   -0.0521 C.ar    1  UNL1        0.0320
     18 C          -3.7153   -2.5368    0.7242 C.3     1  UNL1        0.0121
     19 C          -2.7791   -2.4787   -0.5037 C.3     1  UNL1        0.0125
     20 N          -2.2815   -1.2025   -0.6443 N.3     1  UNL1       -0.2868
     21 C          -0.9849   -0.8641   -0.9760 C.3     1  UNL1        0.0258
     22 C           0.1302   -1.1083    0.0086 C.3     1  UNL1        0.0686
     23 O           0.3508   -2.4010    0.3092 O.3     1  UNL1       -0.3905
     24 C           1.3375   -0.2991   -0.3618 C.3     1  UNL1       -0.0142
     25 C           2.4413   -0.4574    0.6119 C.3     1  UNL1        0.0419
     26 C           3.1017   -1.7564    0.7879 C.3     1  UNL1       -0.0165
     27 C           3.8241   -2.3401   -0.3335 C.ar    1  UNL1       -0.0466
     28 C           3.2591   -3.0373   -1.3536 C.ar    1  UNL1       -0.0586
     29 C           4.0582   -3.5688   -2.3805 C.ar    1  UNL1       -0.0615
     30 C           5.4254   -3.4056   -2.3926 C.ar    1  UNL1       -0.0617
     31 C           5.9946   -2.6992   -1.3563 C.ar    1  UNL1       -0.0615
     32 C           5.2089   -2.1720   -0.3379 C.ar    1  UNL1       -0.0586
     33 C           3.3544    0.7479    0.5684 C.2     1  UNL1        0.2170
     34 O           3.3533    1.5667    1.5372 O.2     1  UNL1       -0.2755
     35 N           4.2212    1.0213   -0.5132 N.am    1  UNL1       -0.3057
     36 C           5.0740    2.1461   -0.6522 C.3     1  UNL1        0.0748
     37 C           5.7321    2.6230    0.6117 C.ar    1  UNL1       -0.0215
     38 C           5.3611    3.4571    1.6313 C.ar    1  UNL1       -0.0565
     39 C           6.2067    3.7253    2.7137 C.ar    1  UNL1       -0.0614
     40 C           7.4624    3.1314    2.7601 C.ar    1  UNL1       -0.0615
     41 C           7.8362    2.2956    1.7344 C.ar    1  UNL1       -0.0582
     42 C           7.0080    2.0288    0.6668 C.ar    1  UNL1       -0.0398
     43 C           7.2371    1.2175   -0.5539 C.3     1  UNL1        0.0008
     44 C           6.2592    1.9342   -1.5240 C.3     1  UNL1        0.0816
     45 O           6.1075    1.1211   -2.6086 O.3     1  UNL1       -0.3893
     46 H          -4.0974    4.1443    2.3593 H       1  UNL1        0.0250
     47 H          -4.7006    2.5026    1.9692 H       1  UNL1        0.0250
     48 H          -2.9294    2.7827    2.2441 H       1  UNL1        0.0250
     49 H          -2.0195    3.9117   -0.9667 H       1  UNL1        0.0250
     50 H          -1.6599    3.6864    0.8224 H       1  UNL1        0.0250
     51 H          -2.4736    5.1495    0.2438 H       1  UNL1        0.0250
     52 H          -4.9606    5.1533    0.7776 H       1  UNL1        0.0250
     53 H          -5.7742    3.8255   -0.0748 H       1  UNL1        0.0250
     54 H          -4.6375    4.9053   -1.0260 H       1  UNL1        0.0250
     55 H          -4.7293    2.1191   -1.0658 H       1  UNL1        0.1492
     56 H          -3.2881   -0.0782   -2.0554 H       1  UNL1        0.0571
     57 H          -5.4327    0.0044   -0.5707 H       1  UNL1        0.0447
     58 H          -5.0371   -1.5119   -1.4168 H       1  UNL1        0.0447
     59 H          -6.1562   -0.6471    1.7458 H       1  UNL1        0.0476
     60 H          -5.5971   -2.2610    2.2580 H       1  UNL1        0.0476
     61 H          -6.4079   -4.3151    1.2004 H       1  UNL1        0.0622
     62 H          -8.3033   -5.3319   -0.0064 H       1  UNL1        0.0633
     63 H          -9.8738   -3.8667   -1.2395 H       1  UNL1        0.0829
     64 H          -7.7105   -0.4249   -0.0880 H       1  UNL1        0.0833
     65 H          -3.0532   -2.3307    1.6090 H       1  UNL1        0.0439
     66 H          -4.1215   -3.5492    0.7089 H       1  UNL1        0.0439
     67 H          -3.4515   -2.7290   -1.3836 H       1  UNL1        0.0439
     68 H          -2.1029   -3.3308   -0.3452 H       1  UNL1        0.0439
     69 H          -0.9478    0.2491   -1.1896 H       1  UNL1        0.0452
     70 H          -0.6641   -1.2958   -1.9796 H       1  UNL1        0.0452
     71 H          -0.2274   -0.5467    0.9695 H       1  UNL1        0.0606
     72 H           0.1715   -2.9945   -0.4234 H       1  UNL1        0.2098
     73 H           1.0439    0.7975   -0.3399 H       1  UNL1        0.0298
     74 H           1.6486   -0.4597   -1.4209 H       1  UNL1        0.0298
     75 H           1.9125   -0.2983    1.6456 H       1  UNL1        0.0398
     76 H           2.3944   -2.5086    1.1716 H       1  UNL1        0.0320
     77 H           3.8028   -1.6178    1.6923 H       1  UNL1        0.0320
     78 H           2.2145   -3.2336   -1.4615 H       1  UNL1        0.0620
     79 H           3.5814   -4.1173   -3.1734 H       1  UNL1        0.0618
     80 H           6.0668   -3.8009   -3.1830 H       1  UNL1        0.0618
     81 H           7.0596   -2.5621   -1.3512 H       1  UNL1        0.0618
     82 H           5.6688   -1.6387    0.4617 H       1  UNL1        0.0620
     83 H           4.1743    0.2717   -1.2979 H       1  UNL1        0.1494
     84 H           4.4472    3.0070   -1.0224 H       1  UNL1        0.0574
     85 H           4.3856    3.9527    1.5967 H       1  UNL1        0.0621
     86 H           5.8297    4.3987    3.4718 H       1  UNL1        0.0618
     87 H           8.1049    3.3537    3.6092 H       1  UNL1        0.0618
     88 H           8.8186    1.8349    1.7745 H       1  UNL1        0.0620
     89 H           8.2458    1.2066   -0.9317 H       1  UNL1        0.0339
     90 H           6.8814    0.2026   -0.3234 H       1  UNL1        0.0339
     91 H           6.7528    2.8687   -1.8314 H       1  UNL1        0.0618
     92 H           6.8372    0.4237   -2.6667 H       1  UNL1        0.2099
@<TRIPOS>BOND
     1     1     2    1
     2     2     3    1
     3     2     4    1
     4     2     5    1
     5     5     6   am
     6     6     7    2
     7     6     8    1
     8     8     9    1
     9     9    10    1
    10    10    11    1
    11    11    12    1
    12    12    13   ar
    13    13    14   ar
    14    14    15   ar
    15    15    16   ar
    16    16    17   ar
    17    10    18    1
    18    18    19    1
    19    19    20    1
    20    20    21    1
    21    21    22    1
    22    22    23    1
    23    22    24    1
    24    24    25    1
    25    25    26    1
    26    26    27    1
    27    27    28   ar
    28    28    29   ar
    29    29    30   ar
    30    30    31   ar
    31    31    32   ar
    32    25    33    1
    33    33    34    2
    34    33    35   am
    35    35    36    1
    36    36    37    1
    37    37    38   ar
    38    38    39   ar
    39    39    40   ar
    40    40    41   ar
    41    41    42   ar
    42    42    43    1
    43    43    44    1
    44    44    45    1
    45    20     8    1
    46    32    27   ar
    47    44    36    1
    48    17    12   ar
    49    42    37   ar
    50     1    46    1
    51     1    47    1
    52     1    48    1
    53     3    49    1
    54     3    50    1
    55     3    51    1
    56     4    52    1
    57     4    53    1
    58     4    54    1
    59     5    55    1
    60     8    56    1
    61     9    57    1
    62     9    58    1
    63    11    59    1
    64    11    60    1
    65    13    61    1
    66    14    62    1
    67    15    63    1
    68    17    64    1
    69    18    65    1
    70    18    66    1
    71    19    67    1
    72    19    68    1
    73    21    69    1
    74    21    70    1
    75    22    71    1
    76    23    72    1
    77    24    73    1
    78    24    74    1
    79    25    75    1
    80    26    76    1
    81    26    77    1
    82    28    78    1
    83    29    79    1
    84    30    80    1
    85    31    81    1
    86    32    82    1
    87    35    83    1
    88    36    84    1
    89    38    85    1
    90    39    86    1
    91    40    87    1
    92    41    88    1
    93    43    89    1
    94    43    90    1
    95    44    91    1
    96    45    92    1
