@<TRIPOS>MOLECULE
*****
 37 39 0 0 0
SMALL
GASTEIGER

@<TRIPOS>ATOM
      1 C           4.4300   -2.2760   -1.0619 C.3     1  UNL1       -0.0199
      2 C           3.2629   -1.5073   -0.5308 C.ar    1  UNL1        0.0708
      3 N           2.0219   -1.9628   -0.2877 N.ar    1  UNL1       -0.1704
      4 N           1.2504   -0.9961    0.1792 N.ar    1  UNL1       -0.2303
      5 C          -0.1424   -1.0875    0.5582 C.ar    1  UNL1        0.0844
      6 C          -0.5645   -2.1113    1.3764 C.ar    1  UNL1        0.0530
      7 N          -1.8327   -2.2048    1.7287 N.ar    1  UNL1       -0.2608
      8 C          -2.7241   -1.3021    1.2925 C.ar    1  UNL1        0.0336
      9 C          -2.3665   -0.2641    0.4789 C.ar    1  UNL1        0.0035
     10 C          -3.3845    0.7336    0.0042 C.3     1  UNL1        0.0868
     11 C          -4.7515    0.3996    0.5488 C.3     1  UNL1       -0.0321
     12 C          -3.3385    0.7885   -1.4861 C.3     1  UNL1       -0.0321
     13 O          -3.0485    2.0009    0.5245 O.3     1  UNL1       -0.3845
     14 C          -1.0437   -0.1695    0.1134 C.ar    1  UNL1       -0.0274
     15 C           1.9792    0.1362    0.2549 C.ar    1  UNL1        0.0777
     16 C           1.7469    1.4348    0.6501 C.ar    1  UNL1       -0.0354
     17 C           2.7061    2.4191    0.6218 C.ar    1  UNL1       -0.0570
     18 C           3.9606    2.0659    0.1705 C.ar    1  UNL1       -0.0257
     19 C           4.2609    0.7835   -0.2401 C.ar    1  UNL1        0.1343
     20 F           5.4876    0.4545   -0.6773 F       1  UNL1       -0.2047
     21 C           3.2547   -0.1654   -0.1894 C.ar    1  UNL1        0.0582
     22 H           4.3906   -2.3834   -2.1612 H       1  UNL1        0.0293
     23 H           4.4144   -3.3312   -0.6603 H       1  UNL1        0.0293
     24 H           5.3733   -1.8391   -0.6906 H       1  UNL1        0.0293
     25 H           0.2127   -2.8181    1.7000 H       1  UNL1        0.0851
     26 H          -3.7658   -1.3699    1.5756 H       1  UNL1        0.0833
     27 H          -5.1113   -0.5989    0.2500 H       1  UNL1        0.0260
     28 H          -4.6826    0.5181    1.6622 H       1  UNL1        0.0260
     29 H          -5.4451    1.1786    0.1711 H       1  UNL1        0.0260
     30 H          -4.3684    0.6735   -1.8917 H       1  UNL1        0.0260
     31 H          -2.8498    1.7174   -1.8192 H       1  UNL1        0.0260
     32 H          -2.7635   -0.0796   -1.8899 H       1  UNL1        0.0260
     33 H          -3.8855    2.5316    0.4875 H       1  UNL1        0.2106
     34 H          -0.7350    0.6449   -0.5314 H       1  UNL1        0.0643
     35 H           0.7644    1.7178    1.0052 H       1  UNL1        0.0639
     36 H           2.5388    3.4422    0.9286 H       1  UNL1        0.0619
     37 H           4.7485    2.8264    0.1352 H       1  UNL1        0.0646
@<TRIPOS>BOND
     1     1     2    1
     2     2     3   ar
     3     3     4   ar
     4     4     5    1
     5     5     6   ar
     6     6     7   ar
     7     7     8   ar
     8     8     9   ar
     9     9    10    1
    10    10    11    1
    11    10    12    1
    12    10    13    1
    13     9    14   ar
    14     4    15   ar
    15    15    16   ar
    16    16    17   ar
    17    17    18   ar
    18    18    19   ar
    19    19    20    1
    20    19    21   ar
    21    21     2   ar
    22    14     5   ar
    23    21    15   ar
    24     1    22    1
    25     1    23    1
    26     1    24    1
    27     6    25    1
    28     8    26    1
    29    11    27    1
    30    11    28    1
    31    11    29    1
    32    12    30    1
    33    12    31    1
    34    12    32    1
    35    13    33    1
    36    14    34    1
    37    16    35    1
    38    17    36    1
    39    18    37    1
