@<TRIPOS>MOLECULE
*****
 32 33 0 0 0
SMALL
GASTEIGER

@<TRIPOS>ATOM
      1 O          -4.9295    2.3626    0.5397 O.2     1  UNL1       -0.2451
      2 C          -3.7002    2.0375    0.4244 C.2     1  UNL1        0.3386
      3 O          -2.8375    3.0694    0.2687 O.3     1  UNL1       -0.4771
      4 C          -3.3396    0.6457    0.4672 C.ar    1  UNL1        0.0799
      5 C          -4.4037   -0.2445    0.6237 C.ar    1  UNL1       -0.0460
      6 C          -4.1355   -1.5853    0.6647 C.ar    1  UNL1       -0.0609
      7 C          -2.8455   -2.0344    0.5540 C.ar    1  UNL1       -0.0600
      8 C          -1.7982   -1.1743    0.4014 C.ar    1  UNL1       -0.0397
      9 C          -2.0467    0.1981    0.3561 C.ar    1  UNL1        0.0454
     10 N          -0.9506    1.0663    0.1746 N.pl3   1  UNL1       -0.3138
     11 C           0.3736    0.5853   -0.0579 C.ar    1  UNL1        0.0314
     12 C           1.3798    1.0386    0.7280 C.ar    1  UNL1       -0.0392
     13 C           2.6918    0.6194    0.5060 C.ar    1  UNL1       -0.0380
     14 C           3.0152   -0.2335   -0.4734 C.ar    1  UNL1        0.1063
     15 S           4.6808   -0.7267   -0.7088 S.3     1  UNL1        0.3115
     16 F           5.3812   -1.9429   -2.0328 F       1  UNL1       -0.0934
     17 F           5.8210   -0.9467    0.9738 F       1  UNL1       -0.0934
     18 F           5.1620    0.1945   -2.1286 F       1  UNL1       -0.0934
     19 F           4.6802   -2.3964   -0.0538 F       1  UNL1       -0.0934
     20 F           6.1321    0.6334   -0.3110 F       1  UNL1       -0.0934
     21 C           1.9744   -0.6681   -1.2441 C.ar    1  UNL1       -0.0380
     22 C           0.6304   -0.2913   -1.0820 C.ar    1  UNL1       -0.0392
     23 H          -3.0421    3.9753   -0.1280 H       1  UNL1        0.2954
     24 H          -5.4356    0.0682    0.7149 H       1  UNL1        0.0626
     25 H          -4.9360   -2.3186    0.7853 H       1  UNL1        0.0618
     26 H          -2.6355   -3.1144    0.5876 H       1  UNL1        0.0618
     27 H          -0.7791   -1.5736    0.3329 H       1  UNL1        0.0636
     28 H          -1.0390    2.0923    0.2057 H       1  UNL1        0.1522
     29 H           1.2565    1.7185    1.5390 H       1  UNL1        0.0636
     30 H           3.4708    0.9978    1.1476 H       1  UNL1        0.0632
     31 H           2.2986   -1.3670   -2.0333 H       1  UNL1        0.0632
     32 H          -0.0939   -0.6850   -1.7417 H       1  UNL1        0.0636
@<TRIPOS>BOND
     1     1     2    2
     2     2     3    1
     3     2     4    1
     4     4     5   ar
     5     5     6   ar
     6     6     7   ar
     7     7     8   ar
     8     8     9   ar
     9     9    10    1
    10    10    11    1
    11    11    12   ar
    12    12    13   ar
    13    13    14   ar
    14    14    15    1
    15    15    16    1
    16    15    17    1
    17    15    18    1
    18    15    19    1
    19    15    20    1
    20    14    21   ar
    21    21    22   ar
    22     9     4   ar
    23    22    11   ar
    24     3    23    1
    25     5    24    1
    26     6    25    1
    27     7    26    1
    28     8    27    1
    29    10    28    1
    30    12    29    1
    31    13    30    1
    32    21    31    1
    33    22    32    1
