
     RDKit          3D

 32 33  0  0  0  0  0  0  0  0999 V2000
   -4.9295    2.3626    0.5397 O   0  0  0  0  0  0  0  0  0  0  0  0
   -3.7002    2.0375    0.4244 C   0  0  0  0  0  0  0  0  0  0  0  0
   -2.8375    3.0694    0.2687 O   0  0  0  0  0  0  0  0  0  0  0  0
   -3.3396    0.6457    0.4672 C   0  0  0  0  0  0  0  0  0  0  0  0
   -4.4037   -0.2445    0.6237 C   0  0  0  0  0  0  0  0  0  0  0  0
   -4.1355   -1.5853    0.6647 C   0  0  0  0  0  0  0  0  0  0  0  0
   -2.8455   -2.0344    0.5540 C   0  0  0  0  0  0  0  0  0  0  0  0
   -1.7982   -1.1743    0.4014 C   0  0  0  0  0  0  0  0  0  0  0  0
   -2.0467    0.1981    0.3561 C   0  0  0  0  0  0  0  0  0  0  0  0
   -0.9506    1.0663    0.1746 N   0  0  0  0  0  0  0  0  0  0  0  0
    0.3736    0.5853   -0.0579 C   0  0  0  0  0  0  0  0  0  0  0  0
    1.3798    1.0386    0.7280 C   0  0  0  0  0  0  0  0  0  0  0  0
    2.6918    0.6194    0.5060 C   0  0  0  0  0  0  0  0  0  0  0  0
    3.0152   -0.2335   -0.4734 C   0  0  0  0  0  0  0  0  0  0  0  0
    4.6808   -0.7267   -0.7088 S   0  0  0  0  0  6  0  0  0  0  0  0
    5.3812   -1.9429   -2.0328 F   0  0  0  0  0  0  0  0  0  0  0  0
    5.8210   -0.9467    0.9738 F   0  0  0  0  0  0  0  0  0  0  0  0
    5.1620    0.1945   -2.1286 F   0  0  0  0  0  0  0  0  0  0  0  0
    4.6802   -2.3964   -0.0538 F   0  0  0  0  0  0  0  0  0  0  0  0
    6.1321    0.6334   -0.3110 F   0  0  0  0  0  0  0  0  0  0  0  0
    1.9744   -0.6681   -1.2441 C   0  0  0  0  0  0  0  0  0  0  0  0
    0.6304   -0.2913   -1.0820 C   0  0  0  0  0  0  0  0  0  0  0  0
   -3.0421    3.9753   -0.1280 H   0  0  0  0  0  0  0  0  0  0  0  0
   -5.4356    0.0682    0.7149 H   0  0  0  0  0  0  0  0  0  0  0  0
   -4.9360   -2.3186    0.7853 H   0  0  0  0  0  0  0  0  0  0  0  0
   -2.6355   -3.1144    0.5876 H   0  0  0  0  0  0  0  0  0  0  0  0
   -0.7791   -1.5736    0.3329 H   0  0  0  0  0  0  0  0  0  0  0  0
   -1.0390    2.0923    0.2057 H   0  0  0  0  0  0  0  0  0  0  0  0
    1.2565    1.7185    1.5390 H   0  0  0  0  0  0  0  0  0  0  0  0
    3.4708    0.9978    1.1476 H   0  0  0  0  0  0  0  0  0  0  0  0
    2.2986   -1.3670   -2.0333 H   0  0  0  0  0  0  0  0  0  0  0  0
   -0.0939   -0.6850   -1.7417 H   0  0  0  0  0  0  0  0  0  0  0  0
  1  2  2  0
  2  3  1  0
  2  4  1  0
  4  5  2  0
  5  6  1  0
  6  7  2  0
  7  8  1  0
  8  9  2  0
  9 10  1  0
 10 11  1  0
 11 12  2  0
 12 13  1  0
 13 14  2  0
 14 15  1  0
 15 16  1  0
 15 17  1  0
 15 18  1  0
 15 19  1  0
 15 20  1  0
 14 21  1  0
 21 22  2  0
  9  4  1  0
 22 11  1  0
  3 23  1  0
  5 24  1  0
  6 25  1  0
  7 26  1  0
  8 27  1  0
 10 28  1  0
 12 29  1  0
 13 30  1  0
 21 31  1  0
 22 32  1  0
M  END
$$$$
