@<TRIPOS>MOLECULE
*****
 44 45 0 0 0
SMALL
GASTEIGER

@<TRIPOS>ATOM
      1 C           9.7484    1.1454    1.0272 C.3     1  UNL1        0.0820
      2 O           8.4369    0.9373    0.4869 O.3     1  UNL1       -0.4645
      3 C           7.6181   -0.0770    0.9569 C.2     1  UNL1        0.3389
      4 O           8.0680   -0.8078    1.8746 O.2     1  UNL1       -0.2450
      5 C           6.2764   -0.2977    0.4113 C.ar    1  UNL1        0.0590
      6 C           5.7540    0.4819   -0.5912 C.ar    1  UNL1       -0.0474
      7 C           4.4940    0.2820   -1.1102 C.ar    1  UNL1       -0.0545
      8 C           3.7525   -0.7529   -0.5784 C.ar    1  UNL1       -0.0078
      9 C           2.3829   -0.9592   -1.1526 C.3     1  UNL1        0.1429
     10 O           1.5086   -0.1622   -0.3699 O.2     1  UNL1       -0.3890
     11 N           0.1587   -0.0838   -0.5872 N.2     1  UNL1       -0.0922
     12 C          -0.7211   -0.0580    0.3373 C.2     1  UNL1        0.0736
     13 C          -2.1472    0.0255    0.0778 C.ar    1  UNL1       -0.0038
     14 C          -2.6370    0.0825   -1.2076 C.ar    1  UNL1       -0.0525
     15 C          -3.9787    0.1619   -1.4862 C.ar    1  UNL1       -0.0540
     16 C          -4.9147    0.1883   -0.4563 C.ar    1  UNL1       -0.0248
     17 C          -6.3238    0.2731   -0.8085 C.2     1  UNL1       -0.0496
     18 C          -7.2888    0.3044    0.0759 C.2     1  UNL1        0.0027
     19 C          -8.7110    0.3914   -0.3375 C.2     1  UNL1        0.2593
     20 O          -8.9680    0.4342   -1.5539 O.2     1  UNL1       -0.2687
     21 N          -9.7044    0.4213    0.6732 N.am    1  UNL1       -0.1940
     22 O         -11.0098    0.5006    0.3130 O.3     1  UNL1       -0.2949
     23 C          -4.4483    0.1327    0.8212 C.ar    1  UNL1       -0.0540
     24 C          -3.0806    0.0523    1.0819 C.ar    1  UNL1       -0.0525
     25 C           4.2232   -1.5683    0.4280 C.ar    1  UNL1       -0.0545
     26 C           5.5065   -1.3177    0.9138 C.ar    1  UNL1       -0.0474
     27 H           9.7058    1.6135    2.0297 H       1  UNL1        0.0661
     28 H          10.3212    0.2018    1.0653 H       1  UNL1        0.0661
     29 H          10.2792    1.8552    0.3608 H       1  UNL1        0.0661
     30 H           6.3562    1.2799   -0.9844 H       1  UNL1        0.0626
     31 H           4.0926    0.9049   -1.9024 H       1  UNL1        0.0622
     32 H           2.3718   -0.6577   -2.2037 H       1  UNL1        0.0775
     33 H           2.1014   -2.0341   -1.1135 H       1  UNL1        0.0775
     34 H          -0.3756   -0.1010    1.3619 H       1  UNL1        0.0869
     35 H          -1.9030    0.0618   -2.0151 H       1  UNL1        0.0624
     36 H          -4.3318    0.2052   -2.5026 H       1  UNL1        0.0624
     37 H          -6.5875    0.3123   -1.8598 H       1  UNL1        0.0625
     38 H          -7.0578    0.2670    1.1234 H       1  UNL1        0.0670
     39 H          -9.4536    0.3835    1.6910 H       1  UNL1        0.1825
     40 H         -11.1003    0.1304   -0.6201 H       1  UNL1        0.2414
     41 H          -5.1584    0.1518    1.6393 H       1  UNL1        0.0624
     42 H          -2.7395    0.0096    2.1040 H       1  UNL1        0.0624
     43 H           3.5988   -2.3584    0.8016 H       1  UNL1        0.0622
     44 H           5.8855   -1.9560    1.7075 H       1  UNL1        0.0626
@<TRIPOS>BOND
     1     1     2    1
     2     2     3    1
     3     3     4    2
     4     3     5    1
     5     5     6   ar
     6     6     7   ar
     7     7     8   ar
     8     8     9    1
     9     9    10    1
    10    10    11    1
    11    11    12    2
    12    12    13    1
    13    13    14   ar
    14    14    15   ar
    15    15    16   ar
    16    16    17    1
    17    17    18    2
    18    18    19    1
    19    19    20    2
    20    19    21   am
    21    21    22    1
    22    16    23   ar
    23    23    24   ar
    24     8    25   ar
    25    25    26   ar
    26    26     5   ar
    27    24    13   ar
    28     1    27    1
    29     1    28    1
    30     1    29    1
    31     6    30    1
    32     7    31    1
    33     9    32    1
    34     9    33    1
    35    12    34    1
    36    14    35    1
    37    15    36    1
    38    17    37    1
    39    18    38    1
    40    21    39    1
    41    22    40    1
    42    23    41    1
    43    24    42    1
    44    25    43    1
    45    26    44    1
