
     RDKit          3D

 29 29  0  0  0  0  0  0  0  0999 V2000
   -2.5167   -1.2829    1.1221 C   0  0  0  0  0  0  0  0  0  0  0  0
   -1.2887   -1.0741    0.4612 N   0  0  0  0  0  0  0  0  0  0  0  0
   -1.2081    0.0869   -0.3891 C   0  0  0  0  0  0  0  0  0  0  0  0
   -2.3042   -0.1212   -1.4447 C   0  0  0  0  0  0  0  0  0  0  0  0
   -1.5731    1.3618    0.3153 C   0  0  0  0  0  0  0  0  0  0  0  0
    0.0168    0.1440   -1.1941 C   0  0  0  0  0  0  0  0  0  0  0  0
    1.3157    0.1799   -0.5739 C   0  0  0  0  0  0  0  0  0  0  0  0
    1.9713   -1.0311   -0.3022 C   0  0  0  0  0  0  0  0  0  0  0  0
    3.2060   -1.0871    0.2843 C   0  0  0  0  0  0  0  0  0  0  0  0
    3.8344    0.0910    0.6236 C   0  0  0  0  0  0  0  0  0  0  0  0
    3.2452    1.3166    0.3841 C   0  0  0  0  0  0  0  0  0  0  0  0
    1.9994    1.2965   -0.2103 C   0  0  0  0  0  0  0  0  0  0  0  0
   -3.4430   -1.0593    0.6218 H   0  0  0  0  0  0  0  0  0  0  0  0
   -2.5567   -0.7661    2.1215 H   0  0  0  0  0  0  0  0  0  0  0  0
   -2.5463   -2.3743    1.4121 H   0  0  0  0  0  0  0  0  0  0  0  0
   -0.5407   -1.1198    1.1977 H   0  0  0  0  0  0  0  0  0  0  0  0
   -2.3970   -1.1868   -1.7116 H   0  0  0  0  0  0  0  0  0  0  0  0
   -2.0687    0.4133   -2.3911 H   0  0  0  0  0  0  0  0  0  0  0  0
   -3.2572    0.3576   -1.1168 H   0  0  0  0  0  0  0  0  0  0  0  0
   -1.8763    1.0871    1.3584 H   0  0  0  0  0  0  0  0  0  0  0  0
   -0.7776    2.1295    0.3032 H   0  0  0  0  0  0  0  0  0  0  0  0
   -2.4597    1.8880   -0.1055 H   0  0  0  0  0  0  0  0  0  0  0  0
   -0.0100   -0.7527   -1.8842 H   0  0  0  0  0  0  0  0  0  0  0  0
   -0.0648    1.0079   -1.8976 H   0  0  0  0  0  0  0  0  0  0  0  0
    1.4865   -1.9796   -0.5653 H   0  0  0  0  0  0  0  0  0  0  0  0
    3.6947   -2.0471    0.4849 H   0  0  0  0  0  0  0  0  0  0  0  0
    4.8202    0.0189    1.0910 H   0  0  0  0  0  0  0  0  0  0  0  0
    3.7523    2.2488    0.6572 H   0  0  0  0  0  0  0  0  0  0  0  0
    1.5465    2.2545   -0.3939 H   0  0  0  0  0  0  0  0  0  0  0  0
  1  2  1  0
  2  3  1  0
  3  4  1  0
  3  5  1  0
  3  6  1  0
  6  7  1  0
  7  8  2  0
  8  9  1  0
  9 10  2  0
 10 11  1  0
 11 12  2  0
 12  7  1  0
  1 13  1  0
  1 14  1  0
  1 15  1  0
  2 16  1  0
  4 17  1  0
  4 18  1  0
  4 19  1  0
  5 20  1  0
  5 21  1  0
  5 22  1  0
  6 23  1  0
  6 24  1  0
  8 25  1  0
  9 26  1  0
 10 27  1  0
 11 28  1  0
 12 29  1  0
M  END
$$$$
