@<TRIPOS>MOLECULE
*****
 29 29 0 0 0
SMALL
GASTEIGER

@<TRIPOS>ATOM
      1 C          -2.5167   -1.2829    1.1221 C.3     1  UNL1       -0.0153
      2 N          -1.2887   -1.0741    0.4612 N.3     1  UNL1       -0.3137
      3 C          -1.2081    0.0869   -0.3891 C.3     1  UNL1        0.0172
      4 C          -2.3042   -0.1212   -1.4447 C.3     1  UNL1       -0.0467
      5 C          -1.5731    1.3618    0.3153 C.3     1  UNL1       -0.0467
      6 C           0.0168    0.1440   -1.1941 C.3     1  UNL1       -0.0099
      7 C           1.3157    0.1799   -0.5739 C.ar    1  UNL1       -0.0456
      8 C           1.9713   -1.0311   -0.3022 C.ar    1  UNL1       -0.0585
      9 C           3.2060   -1.0871    0.2843 C.ar    1  UNL1       -0.0615
     10 C           3.8344    0.0910    0.6236 C.ar    1  UNL1       -0.0617
     11 C           3.2452    1.3166    0.3841 C.ar    1  UNL1       -0.0615
     12 C           1.9994    1.2965   -0.2103 C.ar    1  UNL1       -0.0585
     13 H          -3.4430   -1.0593    0.6218 H       1  UNL1        0.0388
     14 H          -2.5567   -0.7661    2.1215 H       1  UNL1        0.0388
     15 H          -2.5463   -2.3743    1.4121 H       1  UNL1        0.0388
     16 H          -0.5407   -1.1198    1.1977 H       1  UNL1        0.1221
     17 H          -2.3970   -1.1868   -1.7116 H       1  UNL1        0.0247
     18 H          -2.0687    0.4133   -2.3911 H       1  UNL1        0.0247
     19 H          -3.2572    0.3576   -1.1168 H       1  UNL1        0.0247
     20 H          -1.8763    1.0871    1.3584 H       1  UNL1        0.0247
     21 H          -0.7776    2.1295    0.3032 H       1  UNL1        0.0247
     22 H          -2.4597    1.8880   -0.1055 H       1  UNL1        0.0247
     23 H          -0.0100   -0.7527   -1.8842 H       1  UNL1        0.0331
     24 H          -0.0648    1.0079   -1.8976 H       1  UNL1        0.0331
     25 H           1.4865   -1.9796   -0.5653 H       1  UNL1        0.0620
     26 H           3.6947   -2.0471    0.4849 H       1  UNL1        0.0618
     27 H           4.8202    0.0189    1.0910 H       1  UNL1        0.0618
     28 H           3.7523    2.2488    0.6572 H       1  UNL1        0.0618
     29 H           1.5465    2.2545   -0.3939 H       1  UNL1        0.0620
@<TRIPOS>BOND
     1     1     2    1
     2     2     3    1
     3     3     4    1
     4     3     5    1
     5     3     6    1
     6     6     7    1
     7     7     8   ar
     8     8     9   ar
     9     9    10   ar
    10    10    11   ar
    11    11    12   ar
    12    12     7   ar
    13     1    13    1
    14     1    14    1
    15     1    15    1
    16     2    16    1
    17     4    17    1
    18     4    18    1
    19     4    19    1
    20     5    20    1
    21     5    21    1
    22     5    22    1
    23     6    23    1
    24     6    24    1
    25     8    25    1
    26     9    26    1
    27    10    27    1
    28    11    28    1
    29    12    29    1
