@<TRIPOS>MOLECULE
*****
 52 55 0 0 0
SMALL
GASTEIGER

@<TRIPOS>ATOM
      1 O           1.0246   -2.1382   -2.0963 O.2     1  UNL1       -0.2699
      2 C           0.3212   -2.1381   -1.0376 C.2     1  UNL1        0.2483
      3 N           0.9093   -2.7980    0.0728 N.am    1  UNL1       -0.2808
      4 C           2.1870   -3.4149    0.0149 C.ar    1  UNL1        0.0459
      5 C           2.3708   -4.7335   -0.3484 C.ar    1  UNL1       -0.0384
      6 C           3.6330   -5.3058   -0.3949 C.ar    1  UNL1       -0.0416
      7 C           4.7375   -4.5486   -0.0725 C.ar    1  UNL1        0.0418
      8 CL          6.3317   -5.2688   -0.1306 Cl      1  UNL1       -0.0835
      9 C           4.5536   -3.2269    0.2917 C.ar    1  UNL1       -0.0295
     10 C           3.2910   -2.6642    0.3354 C.ar    1  UNL1        0.0596
     11 C           3.1327   -1.2822    0.7210 C.2     1  UNL1        0.2511
     12 O           1.9448   -0.8071    0.7502 O.2     1  UNL1       -0.2697
     13 N           4.1922   -0.4024    1.0724 N.am    1  UNL1       -0.2663
     14 C           3.8606    0.9389    1.4304 C.ar    1  UNL1        0.1252
     15 C           3.8183    1.8785    0.4238 C.ar    1  UNL1       -0.0201
     16 C           3.5026    3.1889    0.7190 C.ar    1  UNL1       -0.0387
     17 C           3.2307    3.5564    2.0148 C.ar    1  UNL1        0.0592
     18 CL          2.8290    5.2336    2.3767 Cl      1  UNL1       -0.0820
     19 C           3.2827    2.5914    2.9914 C.ar    1  UNL1        0.0480
     20 N           3.5941    1.3128    2.6818 N.ar    1  UNL1       -0.2387
     21 C          -0.9867   -1.4962   -1.0098 C.ar    1  UNL1        0.0370
     22 C          -1.4489   -0.8864   -2.1579 C.ar    1  UNL1       -0.0492
     23 C          -2.6818   -0.2628   -2.1881 C.ar    1  UNL1       -0.0519
     24 C          -3.5114   -0.2138   -1.0872 C.ar    1  UNL1        0.0172
     25 C          -4.8391    0.4536   -1.1068 C.3     1  UNL1        0.1758
     26 N          -4.7578    1.8460   -0.7347 N.ar    1  UNL1       -0.1996
     27 C          -4.5603    2.8500   -1.6108 C.ar    1  UNL1        0.1715
     28 C          -4.4847    4.1639   -1.2506 C.ar    1  UNL1        0.0021
     29 C          -4.6132    4.5203    0.0741 C.ar    1  UNL1       -0.0506
     30 C          -4.8158    3.5063    0.9848 C.ar    1  UNL1        0.0021
     31 C          -4.8834    2.1837    0.5526 C.ar    1  UNL1        0.1715
     32 C          -3.0531   -0.8222    0.0626 C.ar    1  UNL1       -0.0519
     33 C          -1.8030   -1.4554    0.0958 C.ar    1  UNL1       -0.0492
     34 H           0.3425   -2.8106    0.9641 H       1  UNL1        0.1552
     35 H           1.5226   -5.3511   -0.6064 H       1  UNL1        0.0637
     36 H           3.7502   -6.3480   -0.6847 H       1  UNL1        0.0633
     37 H           5.4428   -2.6689    0.5363 H       1  UNL1        0.0640
     38 H           5.1566   -0.7642    1.0556 H       1  UNL1        0.1566
     39 H           4.0319    1.6091   -0.6209 H       1  UNL1        0.0652
     40 H           3.4701    3.9269   -0.0763 H       1  UNL1        0.0634
     41 H           3.0655    2.9003    4.0058 H       1  UNL1        0.0845
     42 H          -0.8067   -0.9169   -3.0325 H       1  UNL1        0.0625
     43 H          -3.0106    0.2055   -3.1091 H       1  UNL1        0.0623
     44 H          -5.2983    0.4239   -2.1291 H       1  UNL1        0.1085
     45 H          -5.5783   -0.1017   -0.4599 H       1  UNL1        0.1085
     46 H          -4.4604    2.5566   -2.6533 H       1  UNL1        0.1376
     47 H          -4.3240    4.9640   -1.9766 H       1  UNL1        0.0677
     48 H          -4.5564    5.5715    0.3932 H       1  UNL1        0.0621
     49 H          -4.9186    3.7708    2.0298 H       1  UNL1        0.0677
     50 H          -5.0419    1.4392    1.3017 H       1  UNL1        0.1376
     51 H          -3.6279   -0.8396    0.9806 H       1  UNL1        0.0623
     52 H          -1.4672   -1.9259    1.0130 H       1  UNL1        0.0625
@<TRIPOS>UNITY_ATOM_ATTR
26 1
charge 1
@<TRIPOS>BOND
     1     1     2    2
     2     2     3   am
     3     3     4    1
     4     4     5   ar
     5     5     6   ar
     6     6     7   ar
     7     7     8    1
     8     7     9   ar
     9     9    10   ar
    10    10    11    1
    11    11    12    2
    12    11    13   am
    13    13    14    1
    14    14    15   ar
    15    15    16   ar
    16    16    17   ar
    17    17    18    1
    18    17    19   ar
    19    19    20   ar
    20     2    21    1
    21    21    22   ar
    22    22    23   ar
    23    23    24   ar
    24    24    25    1
    25    25    26    1
    26    26    27   ar
    27    27    28   ar
    28    28    29   ar
    29    29    30   ar
    30    30    31   ar
    31    24    32   ar
    32    32    33   ar
    33    10     4   ar
    34    20    14   ar
    35    33    21   ar
    36    31    26   ar
    37     3    34    1
    38     5    35    1
    39     6    36    1
    40     9    37    1
    41    13    38    1
    42    15    39    1
    43    16    40    1
    44    19    41    1
    45    22    42    1
    46    23    43    1
    47    25    44    1
    48    25    45    1
    49    27    46    1
    50    28    47    1
    51    29    48    1
    52    30    49    1
    53    31    50    1
    54    32    51    1
    55    33    52    1
