
     RDKit          3D

 48 49  0  0  0  0  0  0  0  0999 V2000
   -4.8583    1.7295    2.9297 C   0  0  0  0  0  0  0  0  0  0  0  0
   -4.1304    1.1599    2.1328 O   0  0  0  0  0  0  0  0  0  0  0  0
   -3.3190    0.5593    1.2734 C   0  0  0  0  0  0  0  0  0  0  0  0
   -2.0369    0.9206    0.9463 C   0  0  0  0  0  0  0  0  0  0  0  0
   -1.1505    0.3842    0.1209 C   0  0  0  0  0  0  0  0  0  0  0  0
    0.0325    1.0376   -0.2626 C   0  0  0  0  0  0  0  0  0  0  0  0
    1.3230    0.4721   -0.3824 C   0  0  0  0  0  0  0  0  0  0  0  0
    2.4306   -0.0255   -0.5008 C   0  0  0  0  0  0  0  0  0  0  0  0
    3.7481   -0.6012   -0.6396 C   0  0  0  0  0  0  0  0  0  0  0  0
    4.7464    0.3384   -1.0035 C   0  0  0  0  0  0  0  0  0  0  0  0
    4.2728    1.6948   -1.5157 C   0  0  0  0  0  0  0  0  0  0  0  0
    6.0472    0.1126   -1.0614 N   0  0  0  0  0  0  0  0  0  0  0  0
    6.4408   -1.3512   -0.7023 C   0  0  0  0  0  0  0  0  0  0  0  0
    7.8055   -1.4214   -0.7891 N   0  0  0  0  0  0  0  0  0  0  0  0
    5.4855   -2.0665   -0.4037 N   0  0  0  0  0  0  0  0  0  0  0  0
    4.1468   -1.7988   -0.3357 C   0  0  0  0  0  0  0  0  0  0  0  0
    3.2670   -2.8279    0.1874 N   0  0  0  0  0  0  0  0  0  0  0  0
   -0.0685    2.1701   -1.1153 O   0  0  0  0  0  0  0  0  0  0  0  0
    0.3333    3.2940   -0.3765 C   0  0  0  0  0  0  0  0  0  0  0  0
   -1.6038   -0.8087   -0.5603 C   0  0  0  0  0  0  0  0  0  0  0  0
   -2.9169   -1.2494   -0.2631 C   0  0  0  0  0  0  0  0  0  0  0  0
   -3.5431   -2.3882   -0.7632 O   0  0  0  0  0  0  0  0  0  0  0  0
   -2.7954   -3.2684   -1.6610 C   0  0  0  0  0  0  0  0  0  0  0  0
   -3.7857   -0.6464    0.5888 C   0  0  0  0  0  0  0  0  0  0  0  0
   -5.0795   -0.9127    0.9591 O   0  0  0  0  0  0  0  0  0  0  0  0
   -6.0711    0.0186    0.3837 C   0  0  0  0  0  0  0  0  0  0  0  0
   -4.4962    2.6297    3.5578 H   0  0  0  0  0  0  0  0  0  0  0  0
   -5.8553    2.2785    2.5805 H   0  0  0  0  0  0  0  0  0  0  0  0
   -5.3845    1.0331    3.7200 H   0  0  0  0  0  0  0  0  0  0  0  0
   -1.6603    1.7941    1.5461 H   0  0  0  0  0  0  0  0  0  0  0  0
    0.2926    1.7092    0.8303 H   0  0  0  0  0  0  0  0  0  0  0  0
    4.6282    1.7736   -2.6034 H   0  0  0  0  0  0  0  0  0  0  0  0
    3.1634    1.6933   -1.4835 H   0  0  0  0  0  0  0  0  0  0  0  0
    4.7630    2.4791   -0.9386 H   0  0  0  0  0  0  0  0  0  0  0  0
    8.2836   -0.9786   -1.6261 H   0  0  0  0  0  0  0  0  0  0  0  0
    8.3709   -1.8805   -0.0510 H   0  0  0  0  0  0  0  0  0  0  0  0
    2.8777   -2.8316    1.1527 H   0  0  0  0  0  0  0  0  0  0  0  0
    2.9803   -3.6174   -0.4412 H   0  0  0  0  0  0  0  0  0  0  0  0
    1.4027    3.0798   -0.1206 H   0  0  0  0  0  0  0  0  0  0  0  0
   -0.2330    3.2618    0.6148 H   0  0  0  0  0  0  0  0  0  0  0  0
    0.1555    4.2311   -0.9041 H   0  0  0  0  0  0  0  0  0  0  0  0
   -1.0032   -1.3301   -1.2045 H   0  0  0  0  0  0  0  0  0  0  0  0
   -1.8853   -3.5653   -1.1151 H   0  0  0  0  0  0  0  0  0  0  0  0
   -3.4354   -4.2578   -1.5875 H   0  0  0  0  0  0  0  0  0  0  0  0
   -2.6999   -2.9367   -2.6451 H   0  0  0  0  0  0  0  0  0  0  0  0
   -5.5368    0.7310   -0.3055 H   0  0  0  0  0  0  0  0  0  0  0  0
   -6.9823   -0.4157   -0.0214 H   0  0  0  0  0  0  0  0  0  0  0  0
   -6.4661    0.5943    1.2785 H   0  0  0  0  0  0  0  0  0  0  0  0
  1  2  1  0
  2  3  1  0
  3  4  2  0
  4  5  1  0
  5  6  1  0
  6  7  1  0
  7  8  3  0
  8  9  1  0
  9 10  2  0
 10 11  1  0
 10 12  1  0
 12 13  2  0
 13 14  1  0
 13 15  1  0
 15 16  2  0
 16 17  1  0
  6 18  1  0
 18 19  1  0
  5 20  2  0
 20 21  1  0
 21 22  1  0
 22 23  1  0
 21 24  2  0
 24 25  1  0
 25 26  1  0
 24  3  1  0
 16  9  1  0
  1 27  1  0
  1 28  1  0
  1 29  1  0
  4 30  1  0
  6 31  1  0
 11 32  1  0
 11 33  1  0
 11 34  1  0
 14 35  1  0
 14 36  1  0
 17 37  1  0
 17 38  1  0
 19 39  1  0
 19 40  1  0
 19 41  1  0
 20 42  1  0
 23 43  1  0
 23 44  1  0
 23 45  1  0
 26 46  1  0
 26 47  1  0
 26 48  1  0
M  END
$$$$
