@<TRIPOS>MOLECULE
*****
 48 49 0 0 0
SMALL
GASTEIGER

@<TRIPOS>ATOM
      1 C          -4.8583    1.7295    2.9297 C.3     1  UNL1        0.0790
      2 O          -4.1304    1.1599    2.1328 O.3     1  UNL1       -0.4913
      3 C          -3.3190    0.5593    1.2734 C.ar    1  UNL1        0.1655
      4 C          -2.0369    0.9206    0.9463 C.ar    1  UNL1       -0.0095
      5 C          -1.1505    0.3842    0.1209 C.ar    1  UNL1        0.0002
      6 C           0.0325    1.0376   -0.2626 C.3     1  UNL1        0.1442
      7 C           1.3230    0.4721   -0.3824 C.1     1  UNL1       -0.0605
      8 C           2.4306   -0.0255   -0.5008 C.1     1  UNL1       -0.0582
      9 C           3.7481   -0.6012   -0.6396 C.ar    1  UNL1        0.0855
     10 C           4.7464    0.3384   -1.0035 C.ar    1  UNL1        0.0605
     11 C           4.2728    1.6948   -1.5157 C.3     1  UNL1       -0.0209
     12 N           6.0472    0.1126   -1.0614 N.ar    1  UNL1       -0.2186
     13 C           6.4408   -1.3512   -0.7023 C.ar    1  UNL1        0.2145
     14 N           7.8055   -1.4214   -0.7891 N.pl3   1  UNL1       -0.3274
     15 N           5.4855   -2.0665   -0.4037 N.ar    1  UNL1       -0.1989
     16 C           4.1468   -1.7988   -0.3357 C.ar    1  UNL1        0.1370
     17 N           3.2670   -2.8279    0.1874 N.pl3   1  UNL1       -0.3420
     18 O          -0.0685    2.1701   -1.1153 O.3     1  UNL1       -0.3627
     19 C           0.3333    3.2940   -0.3765 C.3     1  UNL1        0.0385
     20 C          -1.6038   -0.8087   -0.5603 C.ar    1  UNL1       -0.0095
     21 C          -2.9169   -1.2494   -0.2631 C.ar    1  UNL1        0.1655
     22 O          -3.5431   -2.3882   -0.7632 O.3     1  UNL1       -0.4913
     23 C          -2.7954   -3.2684   -1.6610 C.3     1  UNL1        0.0790
     24 C          -3.7857   -0.6464    0.5888 C.ar    1  UNL1        0.2035
     25 O          -5.0795   -0.9127    0.9591 O.3     1  UNL1       -0.4885
     26 C          -6.0711    0.0186    0.3837 C.3     1  UNL1        0.0791
     27 H          -4.4962    2.6297    3.5578 H       1  UNL1        0.0660
     28 H          -5.8553    2.2785    2.5805 H       1  UNL1        0.0660
     29 H          -5.3845    1.0331    3.7200 H       1  UNL1        0.0660
     30 H          -1.6603    1.7941    1.5461 H       1  UNL1        0.0659
     31 H           0.2926    1.7092    0.8303 H       1  UNL1        0.0786
     32 H           4.6282    1.7736   -2.6034 H       1  UNL1        0.0293
     33 H           3.1634    1.6933   -1.4835 H       1  UNL1        0.0293
     34 H           4.7630    2.4791   -0.9386 H       1  UNL1        0.0293
     35 H           8.2836   -0.9786   -1.6261 H       1  UNL1        0.1452
     36 H           8.3709   -1.8805   -0.0510 H       1  UNL1        0.1452
     37 H           2.8777   -2.8316    1.1527 H       1  UNL1        0.1437
     38 H           2.9803   -3.6174   -0.4412 H       1  UNL1        0.1437
     39 H           1.4027    3.0798   -0.1206 H       1  UNL1        0.0524
     40 H          -0.2330    3.2618    0.6148 H       1  UNL1        0.0524
     41 H           0.1555    4.2311   -0.9041 H       1  UNL1        0.0524
     42 H          -1.0032   -1.3301   -1.2045 H       1  UNL1        0.0659
     43 H          -1.8853   -3.5653   -1.1151 H       1  UNL1        0.0660
     44 H          -3.4354   -4.2578   -1.5875 H       1  UNL1        0.0660
     45 H          -2.6999   -2.9367   -2.6451 H       1  UNL1        0.0660
     46 H          -5.5368    0.7310   -0.3055 H       1  UNL1        0.0660
     47 H          -6.9823   -0.4157   -0.0214 H       1  UNL1        0.0660
     48 H          -6.4661    0.5943    1.2785 H       1  UNL1        0.0660
@<TRIPOS>BOND
     1     1     2    1
     2     2     3    1
     3     3     4   ar
     4     4     5   ar
     5     5     6    1
     6     6     7    1
     7     7     8    3
     8     8     9    1
     9     9    10   ar
    10    10    11    1
    11    10    12   ar
    12    12    13   ar
    13    13    14    1
    14    13    15   ar
    15    15    16   ar
    16    16    17    1
    17     6    18    1
    18    18    19    1
    19     5    20   ar
    20    20    21   ar
    21    21    22    1
    22    22    23    1
    23    21    24   ar
    24    24    25    1
    25    25    26    1
    26    24     3   ar
    27    16     9   ar
    28     1    27    1
    29     1    28    1
    30     1    29    1
    31     4    30    1
    32     6    31    1
    33    11    32    1
    34    11    33    1
    35    11    34    1
    36    14    35    1
    37    14    36    1
    38    17    37    1
    39    17    38    1
    40    19    39    1
    41    19    40    1
    42    19    41    1
    43    20    42    1
    44    23    43    1
    45    23    44    1
    46    23    45    1
    47    26    46    1
    48    26    47    1
    49    26    48    1
