@<TRIPOS>MOLECULE
*****
 28 28 0 0 0
SMALL
GASTEIGER

@<TRIPOS>ATOM
      1 C           0.8019   -2.4241    0.2065 C.3     1  UNL1       -0.0639
      2 C           1.4612   -1.1924   -0.3928 C.3     1  UNL1       -0.0334
      3 C           0.5684   -0.0212   -0.0634 C.3     1  UNL1        0.1231
      4 C           1.0798    1.2810   -0.5872 C.3     1  UNL1       -0.0334
      5 C           2.4201    1.6988   -0.0854 C.3     1  UNL1       -0.0639
      6 C           0.3440   -0.0194    1.4002 C.2     1  UNL1        0.2354
      7 O           1.2192   -0.4535    2.2167 O.2     1  UNL1       -0.2742
      8 N          -0.8725    0.4717    1.9834 N.am    1  UNL1       -0.2388
      9 C          -2.0129    0.5726    1.1459 C.2     1  UNL1        0.3146
     10 O          -3.1112    0.9879    1.5645 O.2     1  UNL1       -0.2518
     11 N          -1.8967    0.1868   -0.2152 N.am    1  UNL1       -0.2280
     12 C          -3.0649    0.2842   -1.0956 C.3     1  UNL1        0.0124
     13 C          -0.7116   -0.2992   -0.8124 C.2     1  UNL1        0.2378
     14 O          -0.7187   -0.9337   -1.9156 O.2     1  UNL1       -0.2740
     15 H           1.2816   -2.7245    1.1558 H       1  UNL1        0.0230
     16 H          -0.2786   -2.2634    0.4266 H       1  UNL1        0.0230
     17 H           0.8199   -3.2289   -0.5559 H       1  UNL1        0.0230
     18 H           1.5492   -1.3056   -1.5006 H       1  UNL1        0.0277
     19 H           2.4707   -1.0766    0.0692 H       1  UNL1        0.0277
     20 H           1.0187    1.2070   -1.7104 H       1  UNL1        0.0277
     21 H           0.3034    2.0459   -0.3395 H       1  UNL1        0.0277
     22 H           2.2827    2.5708    0.6039 H       1  UNL1        0.0230
     23 H           3.0067    0.8718    0.3668 H       1  UNL1        0.0230
     24 H           2.9865    2.1036   -0.9712 H       1  UNL1        0.0230
     25 H          -0.9434    0.7548    2.9972 H       1  UNL1        0.1591
     26 H          -2.9826   -0.4137   -1.9444 H       1  UNL1        0.0434
     27 H          -3.9271   -0.0035   -0.4865 H       1  UNL1        0.0434
     28 H          -3.0938    1.3225   -1.4606 H       1  UNL1        0.0434
@<TRIPOS>BOND
     1     1     2    1
     2     2     3    1
     3     3     4    1
     4     4     5    1
     5     3     6    1
     6     6     7    2
     7     6     8   am
     8     8     9   am
     9     9    10    2
    10     9    11   am
    11    11    12    1
    12    11    13   am
    13    13    14    2
    14    13     3    1
    15     1    15    1
    16     1    16    1
    17     1    17    1
    18     2    18    1
    19     2    19    1
    20     4    20    1
    21     4    21    1
    22     5    22    1
    23     5    23    1
    24     5    24    1
    25     8    25    1
    26    12    26    1
    27    12    27    1
    28    12    28    1
