
     RDKit          3D

 28 28  0  0  0  0  0  0  0  0999 V2000
    0.8019   -2.4241    0.2065 C   0  0  0  0  0  0  0  0  0  0  0  0
    1.4612   -1.1924   -0.3928 C   0  0  0  0  0  0  0  0  0  0  0  0
    0.5684   -0.0212   -0.0634 C   0  0  0  0  0  0  0  0  0  0  0  0
    1.0798    1.2810   -0.5872 C   0  0  0  0  0  0  0  0  0  0  0  0
    2.4201    1.6988   -0.0854 C   0  0  0  0  0  0  0  0  0  0  0  0
    0.3440   -0.0194    1.4002 C   0  0  0  0  0  0  0  0  0  0  0  0
    1.2192   -0.4535    2.2167 O   0  0  0  0  0  0  0  0  0  0  0  0
   -0.8725    0.4717    1.9834 N   0  0  0  0  0  0  0  0  0  0  0  0
   -2.0129    0.5726    1.1459 C   0  0  0  0  0  0  0  0  0  0  0  0
   -3.1112    0.9879    1.5645 O   0  0  0  0  0  0  0  0  0  0  0  0
   -1.8967    0.1868   -0.2152 N   0  0  0  0  0  0  0  0  0  0  0  0
   -3.0649    0.2842   -1.0956 C   0  0  0  0  0  0  0  0  0  0  0  0
   -0.7116   -0.2992   -0.8124 C   0  0  0  0  0  0  0  0  0  0  0  0
   -0.7187   -0.9337   -1.9156 O   0  0  0  0  0  0  0  0  0  0  0  0
    1.2816   -2.7245    1.1558 H   0  0  0  0  0  0  0  0  0  0  0  0
   -0.2786   -2.2634    0.4266 H   0  0  0  0  0  0  0  0  0  0  0  0
    0.8199   -3.2289   -0.5559 H   0  0  0  0  0  0  0  0  0  0  0  0
    1.5492   -1.3056   -1.5006 H   0  0  0  0  0  0  0  0  0  0  0  0
    2.4707   -1.0766    0.0692 H   0  0  0  0  0  0  0  0  0  0  0  0
    1.0187    1.2070   -1.7104 H   0  0  0  0  0  0  0  0  0  0  0  0
    0.3034    2.0459   -0.3395 H   0  0  0  0  0  0  0  0  0  0  0  0
    2.2827    2.5708    0.6039 H   0  0  0  0  0  0  0  0  0  0  0  0
    3.0067    0.8718    0.3668 H   0  0  0  0  0  0  0  0  0  0  0  0
    2.9865    2.1036   -0.9712 H   0  0  0  0  0  0  0  0  0  0  0  0
   -0.9434    0.7548    2.9972 H   0  0  0  0  0  0  0  0  0  0  0  0
   -2.9826   -0.4137   -1.9444 H   0  0  0  0  0  0  0  0  0  0  0  0
   -3.9271   -0.0035   -0.4865 H   0  0  0  0  0  0  0  0  0  0  0  0
   -3.0938    1.3225   -1.4606 H   0  0  0  0  0  0  0  0  0  0  0  0
  1  2  1  0
  2  3  1  0
  3  4  1  0
  4  5  1  0
  3  6  1  0
  6  7  2  0
  6  8  1  0
  8  9  1  0
  9 10  2  0
  9 11  1  0
 11 12  1  0
 11 13  1  0
 13 14  2  0
 13  3  1  0
  1 15  1  0
  1 16  1  0
  1 17  1  0
  2 18  1  0
  2 19  1  0
  4 20  1  0
  4 21  1  0
  5 22  1  0
  5 23  1  0
  5 24  1  0
  8 25  1  0
 12 26  1  0
 12 27  1  0
 12 28  1  0
M  END
$$$$
