@<TRIPOS>MOLECULE
*****
 32 34 0 0 0
SMALL
GASTEIGER

@<TRIPOS>ATOM
      1 C          -0.6323   -1.4577   -1.5557 C.3     1  UNL1       -0.0358
      2 C           0.1733   -0.5638   -0.6314 C.3     1  UNL1        0.1351
      3 C           1.6079   -0.9518   -0.5711 C.3     1  UNL1        0.0703
      4 N           2.4357   -0.1619    0.2725 N.ar    1  UNL1       -0.2495
      5 C           3.1428    0.9407   -0.0325 C.ar    1  UNL1        0.0455
      6 C           3.7961    1.3756    1.1034 C.ar    1  UNL1        0.0693
      7 N           3.4676    0.5239    2.0694 N.ar    1  UNL1       -0.1380
      8 N           2.6572   -0.3849    1.5569 N.ar    1  UNL1       -0.0657
      9 C          -0.5342   -0.5212    0.6741 C.3     1  UNL1        0.1508
     10 C          -0.9485   -1.8916    1.1336 C.2     1  UNL1        0.3278
     11 O          -0.1283   -2.8276    1.2842 O.2     1  UNL1       -0.2488
     12 O          -2.2800   -2.1393    1.4024 O.3     1  UNL1       -0.4793
     13 N          -1.6652    0.3021    0.6017 N.am    1  UNL1       -0.2632
     14 C          -2.8557    0.9555    0.9808 C.2     1  UNL1        0.2212
     15 O          -3.8539    0.6454    1.6645 O.2     1  UNL1       -0.2754
     16 C          -2.3321    2.1318    0.1898 C.3     1  UNL1        0.0629
     17 C          -1.8327    1.0344   -0.6632 C.3     1  UNL1        0.1536
     18 S          -0.1072    1.1094   -1.1749 S.O2    1  UNL1       -0.0022
     19 O           0.0372    1.2846   -2.6317 O.2     1  UNL1       -0.1719
     20 O           0.6335    2.1121   -0.3497 O.2     1  UNL1       -0.1719
     21 H          -1.6946   -1.4899   -1.2248 H       1  UNL1        0.0252
     22 H          -0.1638   -2.4441   -1.5847 H       1  UNL1        0.0252
     23 H          -0.6396   -1.0206   -2.5791 H       1  UNL1        0.0252
     24 H           2.0131   -0.8325   -1.6208 H       1  UNL1        0.0532
     25 H           1.6800   -2.0414   -0.3781 H       1  UNL1        0.0532
     26 H           3.1816    1.4017   -1.0335 H       1  UNL1        0.0842
     27 H           4.4351    2.2258    1.1836 H       1  UNL1        0.0864
     28 H           0.2296   -0.2079    1.4297 H       1  UNL1        0.0640
     29 H          -2.6814   -3.0645    1.4707 H       1  UNL1        0.2951
     30 H          -1.5221    2.6784    0.6844 H       1  UNL1        0.0393
     31 H          -3.1286    2.7151   -0.2785 H       1  UNL1        0.0393
     32 H          -2.4905    0.5643   -1.3921 H       1  UNL1        0.0750
@<TRIPOS>BOND
     1     2     1    1
     2     2     3    1
     3     3     4    1
     4     4     5   ar
     5     5     6   ar
     6     6     7   ar
     7     7     8   ar
     8     2     9    1
     9     9    10    1
    10    10    11    2
    11    10    12    1
    12     9    13    1
    13    13    14   am
    14    14    15    2
    15    14    16    1
    16    16    17    1
    17    17    18    1
    18    18    19    2
    19    18    20    2
    20    18     2    1
    21     8     4   ar
    22    17    13    1
    23     1    21    1
    24     1    22    1
    25     1    23    1
    26     3    24    1
    27     3    25    1
    28     5    26    1
    29     6    27    1
    30     9    28    1
    31    12    29    1
    32    16    30    1
    33    16    31    1
    34    17    32    1
