
     RDKit          3D

 32 34  0  0  0  0  0  0  0  0999 V2000
   -0.6323   -1.4577   -1.5557 C   0  0  0  0  0  0  0  0  0  0  0  0
    0.1733   -0.5638   -0.6314 C   0  0  2  0  0  0  0  0  0  0  0  0
    1.6079   -0.9518   -0.5711 C   0  0  0  0  0  0  0  0  0  0  0  0
    2.4357   -0.1619    0.2725 N   0  0  0  0  0  0  0  0  0  0  0  0
    3.1428    0.9407   -0.0325 C   0  0  0  0  0  0  0  0  0  0  0  0
    3.7961    1.3756    1.1034 C   0  0  0  0  0  0  0  0  0  0  0  0
    3.4676    0.5239    2.0694 N   0  0  0  0  0  0  0  0  0  0  0  0
    2.6572   -0.3849    1.5569 N   0  0  0  0  0  0  0  0  0  0  0  0
   -0.5342   -0.5212    0.6741 C   0  0  2  0  0  0  0  0  0  0  0  0
   -0.9485   -1.8916    1.1336 C   0  0  0  0  0  0  0  0  0  0  0  0
   -0.1283   -2.8276    1.2842 O   0  0  0  0  0  0  0  0  0  0  0  0
   -2.2800   -2.1393    1.4024 O   0  0  0  0  0  0  0  0  0  0  0  0
   -1.6652    0.3021    0.6017 N   0  0  0  0  0  0  0  0  0  0  0  0
   -2.8557    0.9555    0.9808 C   0  0  0  0  0  0  0  0  0  0  0  0
   -3.8539    0.6454    1.6645 O   0  0  0  0  0  0  0  0  0  0  0  0
   -2.3321    2.1318    0.1898 C   0  0  0  0  0  0  0  0  0  0  0  0
   -1.8327    1.0344   -0.6632 C   0  0  1  0  0  0  0  0  0  0  0  0
   -0.1072    1.1094   -1.1749 S   0  0  0  0  0  6  0  0  0  0  0  0
    0.0372    1.2846   -2.6317 O   0  0  0  0  0  0  0  0  0  0  0  0
    0.6335    2.1121   -0.3497 O   0  0  0  0  0  0  0  0  0  0  0  0
   -1.6946   -1.4899   -1.2248 H   0  0  0  0  0  0  0  0  0  0  0  0
   -0.1638   -2.4441   -1.5847 H   0  0  0  0  0  0  0  0  0  0  0  0
   -0.6396   -1.0206   -2.5791 H   0  0  0  0  0  0  0  0  0  0  0  0
    2.0131   -0.8325   -1.6208 H   0  0  0  0  0  0  0  0  0  0  0  0
    1.6800   -2.0414   -0.3781 H   0  0  0  0  0  0  0  0  0  0  0  0
    3.1816    1.4017   -1.0335 H   0  0  0  0  0  0  0  0  0  0  0  0
    4.4351    2.2258    1.1836 H   0  0  0  0  0  0  0  0  0  0  0  0
    0.2296   -0.2079    1.4297 H   0  0  0  0  0  0  0  0  0  0  0  0
   -2.6814   -3.0645    1.4707 H   0  0  0  0  0  0  0  0  0  0  0  0
   -1.5221    2.6784    0.6844 H   0  0  0  0  0  0  0  0  0  0  0  0
   -3.1286    2.7151   -0.2785 H   0  0  0  0  0  0  0  0  0  0  0  0
   -2.4905    0.5643   -1.3921 H   0  0  0  0  0  0  0  0  0  0  0  0
  2  1  1  6
  2  3  1  0
  3  4  1  0
  4  5  1  0
  5  6  2  0
  6  7  1  0
  7  8  2  0
  2  9  1  0
  9 10  1  0
 10 11  2  0
 10 12  1  0
  9 13  1  0
 13 14  1  0
 14 15  2  0
 14 16  1  0
 16 17  1  0
 17 18  1  0
 18 19  2  0
 18 20  2  0
 18  2  1  0
  8  4  1  0
 17 13  1  0
  1 21  1  0
  1 22  1  0
  1 23  1  0
  3 24  1  0
  3 25  1  0
  5 26  1  0
  6 27  1  0
  9 28  1  1
 12 29  1  0
 16 30  1  0
 16 31  1  0
 17 32  1  6
M  END
$$$$
