@<TRIPOS>MOLECULE
*****
 60 62 0 0 0
SMALL
GASTEIGER

@<TRIPOS>ATOM
      1 C          -3.1329   -1.8468   -1.1201 C.3     1  UNL1       -0.0203
      2 C          -2.1933   -0.6894   -1.3777 C.3     1  UNL1        0.1556
      3 C          -2.4916   -0.2090   -2.7980 C.3     1  UNL1       -0.0203
      4 O          -2.4821    0.3299   -0.4647 O.3     1  UNL1       -0.4776
      5 C          -3.6624    1.0032   -0.3120 C.ar    1  UNL1        0.1627
      6 C          -3.8468    2.1578   -1.0699 C.ar    1  UNL1       -0.0163
      7 C          -5.0265    2.8706   -0.9462 C.ar    1  UNL1       -0.0581
      8 C          -6.0381    2.4790   -0.0930 C.ar    1  UNL1       -0.0581
      9 C          -5.8626    1.3488    0.6517 C.ar    1  UNL1       -0.0165
     10 C          -4.6836    0.6315    0.5319 C.ar    1  UNL1        0.1585
     11 O          -4.5380   -0.5162    1.3073 O.3     1  UNL1       -0.5033
     12 C          -0.7798   -1.1890   -1.2568 C.3     1  UNL1        0.1991
     13 O           0.0849   -0.1456   -1.4886 O.3     1  UNL1       -0.3473
     14 C           1.4306   -0.5862   -1.4664 C.3     1  UNL1        0.0566
     15 C           1.6060   -1.2547   -0.1251 C.3     1  UNL1        0.0165
     16 C           2.8850   -0.8674    0.5749 C.3     1  UNL1       -0.0271
     17 C           3.0409    0.5420    0.8445 C.2     1  UNL1       -0.0875
     18 C           4.0265    1.2772    0.3839 C.2     1  UNL1       -0.0874
     19 C           5.0846    0.7210   -0.4675 C.3     1  UNL1       -0.0247
     20 C           5.0493    1.4851   -1.7988 C.3     1  UNL1        0.0482
     21 C           5.3420    2.9111   -1.5590 C.2     1  UNL1        0.3050
     22 O           5.1347    3.7721   -2.4750 O.2     1  UNL1       -0.2510
     23 O           5.8400    3.3808   -0.3778 O.3     1  UNL1       -0.4806
     24 C           0.3596   -1.0339    0.6719 C.3     1  UNL1        0.0933
     25 C           0.4593   -1.4538    2.0880 C.ar    1  UNL1       -0.0003
     26 C           0.5513   -2.7582    2.4866 C.ar    1  UNL1       -0.0532
     27 C           0.6228   -3.0383    3.8279 C.ar    1  UNL1       -0.0433
     28 C           0.6038   -2.0287    4.7858 C.ar    1  UNL1        0.0276
     29 N           0.5135   -0.7566    4.3861 N.ar    1  UNL1       -0.2629
     30 C           0.4439   -0.4918    3.0719 C.ar    1  UNL1        0.0332
     31 O          -0.6465   -1.7520    0.0084 O.3     1  UNL1       -0.3393
     32 H          -2.9966   -2.2841   -0.1031 H       1  UNL1        0.0270
     33 H          -4.1882   -1.5291   -1.2151 H       1  UNL1        0.0270
     34 H          -2.9952   -2.6549   -1.8770 H       1  UNL1        0.0270
     35 H          -3.5609    0.0712   -2.8137 H       1  UNL1        0.0270
     36 H          -2.3226   -1.0581   -3.4625 H       1  UNL1        0.0270
     37 H          -1.8105    0.6568   -2.9746 H       1  UNL1        0.0270
     38 H          -3.0998    2.5183   -1.7534 H       1  UNL1        0.0655
     39 H          -5.1615    3.7643   -1.5375 H       1  UNL1        0.0619
     40 H          -6.9666    3.0607   -0.0108 H       1  UNL1        0.0619
     41 H          -6.6484    1.0315    1.3234 H       1  UNL1        0.0655
     42 H          -5.1962   -1.2710    1.0807 H       1  UNL1        0.2923
     43 H          -0.6313   -1.9410   -2.0632 H       1  UNL1        0.0951
     44 H           2.0641    0.2932   -1.5928 H       1  UNL1        0.0564
     45 H           1.5871   -1.2593   -2.3267 H       1  UNL1        0.0564
     46 H           1.6174   -2.3660   -0.3675 H       1  UNL1        0.0354
     47 H           3.6886   -1.3967    0.0528 H       1  UNL1        0.0312
     48 H           2.8361   -1.3968    1.5879 H       1  UNL1        0.0312
     49 H           2.2800    1.0545    1.4850 H       1  UNL1        0.0569
     50 H           4.0975    2.3523    0.6231 H       1  UNL1        0.0569
     51 H           5.1033   -0.3481   -0.6205 H       1  UNL1        0.0312
     52 H           6.1054    0.9891   -0.0159 H       1  UNL1        0.0312
     53 H           5.7764    1.0056   -2.4857 H       1  UNL1        0.0380
     54 H           4.0506    1.4211   -2.2734 H       1  UNL1        0.0380
     55 H           6.3076    4.2381   -0.2082 H       1  UNL1        0.2951
     56 H           0.0834    0.0319    0.6164 H       1  UNL1        0.0651
     57 H           0.5635   -3.5141    1.7141 H       1  UNL1        0.0622
     58 H           0.6962   -4.0593    4.1705 H       1  UNL1        0.0633
     59 H           0.6598   -2.2550    5.8284 H       1  UNL1        0.0829
     60 H           0.3667    0.5523    2.7948 H       1  UNL1        0.0833
@<TRIPOS>BOND
     1     1     2    1
     2     2     3    1
     3     2     4    1
     4     4     5    1
     5     5     6   ar
     6     6     7   ar
     7     7     8   ar
     8     8     9   ar
     9     9    10   ar
    10    10    11    1
    11     2    12    1
    12    12    13    1
    13    13    14    1
    14    14    15    1
    15    15    16    1
    16    16    17    1
    17    17    18    2
    18    18    19    1
    19    19    20    1
    20    20    21    1
    21    21    22    2
    22    21    23    1
    23    15    24    1
    24    24    25    1
    25    25    26   ar
    26    26    27   ar
    27    27    28   ar
    28    28    29   ar
    29    29    30   ar
    30    24    31    1
    31    10     5   ar
    32    31    12    1
    33    30    25   ar
    34     1    32    1
    35     1    33    1
    36     1    34    1
    37     3    35    1
    38     3    36    1
    39     3    37    1
    40     6    38    1
    41     7    39    1
    42     8    40    1
    43     9    41    1
    44    11    42    1
    45    12    43    1
    46    14    44    1
    47    14    45    1
    48    15    46    1
    49    16    47    1
    50    16    48    1
    51    17    49    1
    52    18    50    1
    53    19    51    1
    54    19    52    1
    55    20    53    1
    56    20    54    1
    57    23    55    1
    58    24    56    1
    59    26    57    1
    60    27    58    1
    61    28    59    1
    62    30    60    1
