
     RDKit          3D

 60 62  0  0  0  0  0  0  0  0999 V2000
   -3.1329   -1.8468   -1.1201 C   0  0  0  0  0  0  0  0  0  0  0  0
   -2.1933   -0.6894   -1.3777 C   0  0  0  0  0  0  0  0  0  0  0  0
   -2.4916   -0.2090   -2.7980 C   0  0  0  0  0  0  0  0  0  0  0  0
   -2.4821    0.3299   -0.4647 O   0  0  0  0  0  0  0  0  0  0  0  0
   -3.6624    1.0032   -0.3120 C   0  0  0  0  0  0  0  0  0  0  0  0
   -3.8468    2.1578   -1.0699 C   0  0  0  0  0  0  0  0  0  0  0  0
   -5.0265    2.8706   -0.9462 C   0  0  0  0  0  0  0  0  0  0  0  0
   -6.0381    2.4790   -0.0930 C   0  0  0  0  0  0  0  0  0  0  0  0
   -5.8626    1.3488    0.6517 C   0  0  0  0  0  0  0  0  0  0  0  0
   -4.6836    0.6315    0.5319 C   0  0  0  0  0  0  0  0  0  0  0  0
   -4.5380   -0.5162    1.3073 O   0  0  0  0  0  0  0  0  0  0  0  0
   -0.7798   -1.1890   -1.2568 C   0  0  0  0  0  0  0  0  0  0  0  0
    0.0849   -0.1456   -1.4886 O   0  0  0  0  0  0  0  0  0  0  0  0
    1.4306   -0.5862   -1.4664 C   0  0  0  0  0  0  0  0  0  0  0  0
    1.6060   -1.2547   -0.1251 C   0  0  0  0  0  0  0  0  0  0  0  0
    2.8850   -0.8674    0.5749 C   0  0  0  0  0  0  0  0  0  0  0  0
    3.0409    0.5420    0.8445 C   0  0  0  0  0  0  0  0  0  0  0  0
    4.0265    1.2772    0.3839 C   0  0  0  0  0  0  0  0  0  0  0  0
    5.0846    0.7210   -0.4675 C   0  0  0  0  0  0  0  0  0  0  0  0
    5.0493    1.4851   -1.7988 C   0  0  0  0  0  0  0  0  0  0  0  0
    5.3420    2.9111   -1.5590 C   0  0  0  0  0  0  0  0  0  0  0  0
    5.1347    3.7721   -2.4750 O   0  0  0  0  0  0  0  0  0  0  0  0
    5.8400    3.3808   -0.3778 O   0  0  0  0  0  0  0  0  0  0  0  0
    0.3596   -1.0339    0.6719 C   0  0  0  0  0  0  0  0  0  0  0  0
    0.4593   -1.4538    2.0880 C   0  0  0  0  0  0  0  0  0  0  0  0
    0.5513   -2.7582    2.4866 C   0  0  0  0  0  0  0  0  0  0  0  0
    0.6228   -3.0383    3.8279 C   0  0  0  0  0  0  0  0  0  0  0  0
    0.6038   -2.0287    4.7858 C   0  0  0  0  0  0  0  0  0  0  0  0
    0.5135   -0.7566    4.3861 N   0  0  0  0  0  0  0  0  0  0  0  0
    0.4439   -0.4918    3.0719 C   0  0  0  0  0  0  0  0  0  0  0  0
   -0.6465   -1.7520    0.0084 O   0  0  0  0  0  0  0  0  0  0  0  0
   -2.9966   -2.2841   -0.1031 H   0  0  0  0  0  0  0  0  0  0  0  0
   -4.1882   -1.5291   -1.2151 H   0  0  0  0  0  0  0  0  0  0  0  0
   -2.9952   -2.6549   -1.8770 H   0  0  0  0  0  0  0  0  0  0  0  0
   -3.5609    0.0712   -2.8137 H   0  0  0  0  0  0  0  0  0  0  0  0
   -2.3226   -1.0581   -3.4625 H   0  0  0  0  0  0  0  0  0  0  0  0
   -1.8105    0.6568   -2.9746 H   0  0  0  0  0  0  0  0  0  0  0  0
   -3.0998    2.5183   -1.7534 H   0  0  0  0  0  0  0  0  0  0  0  0
   -5.1615    3.7643   -1.5375 H   0  0  0  0  0  0  0  0  0  0  0  0
   -6.9666    3.0607   -0.0108 H   0  0  0  0  0  0  0  0  0  0  0  0
   -6.6484    1.0315    1.3234 H   0  0  0  0  0  0  0  0  0  0  0  0
   -5.1962   -1.2710    1.0807 H   0  0  0  0  0  0  0  0  0  0  0  0
   -0.6313   -1.9410   -2.0632 H   0  0  0  0  0  0  0  0  0  0  0  0
    2.0641    0.2932   -1.5928 H   0  0  0  0  0  0  0  0  0  0  0  0
    1.5871   -1.2593   -2.3267 H   0  0  0  0  0  0  0  0  0  0  0  0
    1.6174   -2.3660   -0.3675 H   0  0  0  0  0  0  0  0  0  0  0  0
    3.6886   -1.3967    0.0528 H   0  0  0  0  0  0  0  0  0  0  0  0
    2.8361   -1.3968    1.5879 H   0  0  0  0  0  0  0  0  0  0  0  0
    2.2800    1.0545    1.4850 H   0  0  0  0  0  0  0  0  0  0  0  0
    4.0975    2.3523    0.6231 H   0  0  0  0  0  0  0  0  0  0  0  0
    5.1033   -0.3481   -0.6205 H   0  0  0  0  0  0  0  0  0  0  0  0
    6.1054    0.9891   -0.0159 H   0  0  0  0  0  0  0  0  0  0  0  0
    5.7764    1.0056   -2.4857 H   0  0  0  0  0  0  0  0  0  0  0  0
    4.0506    1.4211   -2.2734 H   0  0  0  0  0  0  0  0  0  0  0  0
    6.3076    4.2381   -0.2082 H   0  0  0  0  0  0  0  0  0  0  0  0
    0.0834    0.0319    0.6164 H   0  0  0  0  0  0  0  0  0  0  0  0
    0.5635   -3.5141    1.7141 H   0  0  0  0  0  0  0  0  0  0  0  0
    0.6962   -4.0593    4.1705 H   0  0  0  0  0  0  0  0  0  0  0  0
    0.6598   -2.2550    5.8284 H   0  0  0  0  0  0  0  0  0  0  0  0
    0.3667    0.5523    2.7948 H   0  0  0  0  0  0  0  0  0  0  0  0
  1  2  1  0
  2  3  1  0
  2  4  1  0
  4  5  1  0
  5  6  2  0
  6  7  1  0
  7  8  2  0
  8  9  1  0
  9 10  2  0
 10 11  1  0
  2 12  1  0
 12 13  1  0
 13 14  1  0
 14 15  1  0
 15 16  1  0
 16 17  1  0
 17 18  2  0
 18 19  1  0
 19 20  1  0
 20 21  1  0
 21 22  2  0
 21 23  1  0
 15 24  1  0
 24 25  1  0
 25 26  2  0
 26 27  1  0
 27 28  2  0
 28 29  1  0
 29 30  2  0
 24 31  1  0
 10  5  1  0
 31 12  1  0
 30 25  1  0
  1 32  1  0
  1 33  1  0
  1 34  1  0
  3 35  1  0
  3 36  1  0
  3 37  1  0
  6 38  1  0
  7 39  1  0
  8 40  1  0
  9 41  1  0
 11 42  1  0
 12 43  1  0
 14 44  1  0
 14 45  1  0
 15 46  1  0
 16 47  1  0
 16 48  1  0
 17 49  1  0
 18 50  1  0
 19 51  1  0
 19 52  1  0
 20 53  1  0
 20 54  1  0
 23 55  1  0
 24 56  1  0
 26 57  1  0
 27 58  1  0
 28 59  1  0
 30 60  1  0
M  END
$$$$
