
     RDKit          3D

 30 32  0  0  0  0  0  0  0  0999 V2000
   -0.5716   -1.7735    1.5597 C   0  0  0  0  0  0  0  0  0  0  0  0
   -0.9625   -1.0079    0.3494 C   0  0  0  0  0  0  0  0  0  0  0  0
   -0.2867   -0.8309   -0.8324 C   0  0  0  0  0  0  0  0  0  0  0  0
   -0.9810   -0.0748   -1.6651 O   0  0  0  0  0  0  0  0  0  0  0  0
   -2.1207    0.2703   -1.0763 C   0  0  0  0  0  0  0  0  0  0  0  0
   -3.1908    1.0426   -1.5017 C   0  0  0  0  0  0  0  0  0  0  0  0
   -4.3042    1.2710   -0.6897 C   0  0  0  0  0  0  0  0  0  0  0  0
   -4.2810    0.6848    0.5622 C   0  0  0  0  0  0  0  0  0  0  0  0
   -5.7003    0.9929    1.5609 Cl  0  0  0  0  0  0  0  0  0  0  0  0
   -3.2246   -0.0849    0.9984 C   0  0  0  0  0  0  0  0  0  0  0  0
   -2.1325   -0.2987    0.1791 C   0  0  0  0  0  0  0  0  0  0  0  0
    1.2808   -1.5011   -1.2155 S   0  0  0  0  0  0  0  0  0  0  0  0
    1.3570   -1.7105   -2.7205 O   0  0  0  0  0  0  0  0  0  0  0  0
    1.5166   -2.8356   -0.6008 O   0  0  0  0  0  0  0  0  0  0  0  0
    2.5494   -0.3771   -0.7263 C   0  0  0  0  0  0  0  0  0  0  0  0
    3.8525   -0.6371   -0.9023 N   0  0  0  0  0  0  0  0  0  0  0  0
    4.8188    0.1683   -0.5540 N   0  0  0  0  0  0  0  0  0  0  0  0
    4.5297    1.3543    0.0262 C   0  0  0  0  0  0  0  0  0  0  0  0
    5.4265    2.1855    0.3895 O   0  0  0  0  0  0  0  0  0  0  0  0
    3.2139    1.7112    0.2491 C   0  0  0  0  0  0  0  0  0  0  0  0
    2.2129    0.8402   -0.1293 C   0  0  0  0  0  0  0  0  0  0  0  0
    0.4089   -2.2584    1.3749 H   0  0  0  0  0  0  0  0  0  0  0  0
   -0.4656   -1.0353    2.3862 H   0  0  0  0  0  0  0  0  0  0  0  0
   -1.2953   -2.5705    1.7974 H   0  0  0  0  0  0  0  0  0  0  0  0
   -3.1397    1.4703   -2.4954 H   0  0  0  0  0  0  0  0  0  0  0  0
   -5.1324    1.8832   -1.0505 H   0  0  0  0  0  0  0  0  0  0  0  0
   -3.2659   -0.5179    1.9918 H   0  0  0  0  0  0  0  0  0  0  0  0
    5.8335   -0.0664   -0.7065 H   0  0  0  0  0  0  0  0  0  0  0  0
    2.8964    2.6537    0.7135 H   0  0  0  0  0  0  0  0  0  0  0  0
    1.1580    1.0522    0.0138 H   0  0  0  0  0  0  0  0  0  0  0  0
  1  2  1  0
  2  3  2  0
  3  4  1  0
  4  5  1  0
  5  6  2  0
  6  7  1  0
  7  8  2  0
  8  9  1  0
  8 10  1  0
 10 11  2  0
  3 12  1  0
 12 13  2  0
 12 14  2  0
 12 15  1  0
 15 16  2  0
 16 17  1  0
 17 18  1  0
 18 19  2  0
 18 20  1  0
 20 21  2  0
 11  2  1  0
 21 15  1  0
 11  5  1  0
  1 22  1  0
  1 23  1  0
  1 24  1  0
  6 25  1  0
  7 26  1  0
 10 27  1  0
 17 28  1  0
 20 29  1  0
 21 30  1  0
M  END
$$$$
