@<TRIPOS>MOLECULE
*****
 49 51 0 0 0
SMALL
GASTEIGER

@<TRIPOS>ATOM
      1 O           3.8390   -0.3211   -2.5398 O.2     1  UNL1       -0.2921
      2 C           3.8705   -0.3168   -1.2724 C.2     1  UNL1        0.1632
      3 C           2.6814   -0.7461   -0.5067 C.3     1  UNL1        0.0116
      4 C           1.8664    0.4823   -0.1870 C.3     1  UNL1       -0.0332
      5 C           0.6184    0.1667    0.6078 C.3     1  UNL1       -0.0007
      6 N          -0.2299   -0.7238   -0.1148 N.3     1  UNL1       -0.3021
      7 C          -0.8350   -0.2025   -1.2757 C.3     1  UNL1        0.0018
      8 C          -2.3054   -0.1139   -1.3012 C.3     1  UNL1       -0.0070
      9 C          -3.0544   -0.7292   -0.1729 C.3     1  UNL1        0.0933
     10 O          -3.4307   -2.0400   -0.5585 O.3     1  UNL1       -0.3839
     11 C          -4.3342   -0.0267    0.1024 C.ar    1  UNL1       -0.0160
     12 C          -5.5299   -0.4142   -0.5101 C.ar    1  UNL1       -0.0545
     13 C          -6.7228    0.2152   -0.2772 C.ar    1  UNL1       -0.0430
     14 C          -6.7762    1.2712    0.5870 C.ar    1  UNL1        0.0410
     15 CL         -8.3143    2.0813    0.8864 Cl      1  UNL1       -0.0835
     16 C          -5.6387    1.6957    1.2162 C.ar    1  UNL1       -0.0430
     17 C          -4.4299    1.0421    0.9670 C.ar    1  UNL1       -0.0545
     18 C          -2.2565   -0.9009    1.0971 C.3     1  UNL1       -0.0070
     19 C          -0.9770   -1.6361    0.6664 C.3     1  UNL1        0.0018
     20 C           5.0669    0.1073   -0.5712 C.ar    1  UNL1        0.0176
     21 C           5.1215    0.1548    0.7946 C.ar    1  UNL1       -0.0486
     22 C           6.2762    0.5555    1.4635 C.ar    1  UNL1       -0.0258
     23 C           7.3788    0.9092    0.7445 C.ar    1  UNL1        0.1234
     24 F           8.4937    1.2961    1.4086 F       1  UNL1       -0.2055
     25 C           7.3447    0.8687   -0.6314 C.ar    1  UNL1       -0.0258
     26 C           6.2123    0.4753   -1.2958 C.ar    1  UNL1       -0.0486
     27 H           2.9682   -1.2414    0.4104 H       1  UNL1        0.0345
     28 H           2.0850   -1.4606   -1.1493 H       1  UNL1        0.0345
     29 H           1.6126    0.9621   -1.1544 H       1  UNL1        0.0282
     30 H           2.5279    1.1979    0.3413 H       1  UNL1        0.0282
     31 H           0.9276   -0.3362    1.5462 H       1  UNL1        0.0427
     32 H           0.1445    1.1314    0.8595 H       1  UNL1        0.0427
     33 H          -0.4083    0.8178   -1.4729 H       1  UNL1        0.0427
     34 H          -0.4807   -0.8199   -2.1551 H       1  UNL1        0.0427
     35 H          -2.7147   -0.5652   -2.2547 H       1  UNL1        0.0309
     36 H          -2.6543    0.9613   -1.3671 H       1  UNL1        0.0309
     37 H          -4.1296   -2.3874    0.0509 H       1  UNL1        0.2106
     38 H          -5.4630   -1.2517   -1.1895 H       1  UNL1        0.0622
     39 H          -7.6134   -0.1123   -0.7653 H       1  UNL1        0.0632
     40 H          -5.6326    2.5305    1.9110 H       1  UNL1        0.0632
     41 H          -3.5157    1.3771    1.4669 H       1  UNL1        0.0622
     42 H          -2.8037   -1.6282    1.7323 H       1  UNL1        0.0309
     43 H          -1.9961    0.0326    1.5980 H       1  UNL1        0.0309
     44 H          -0.4038   -1.9339    1.5438 H       1  UNL1        0.0427
     45 H          -1.3205   -2.4780    0.0299 H       1  UNL1        0.0427
     46 H           4.2529   -0.1184    1.3605 H       1  UNL1        0.0625
     47 H           6.2776    0.5785    2.5373 H       1  UNL1        0.0646
     48 H           8.2416    1.1578   -1.1589 H       1  UNL1        0.0646
     49 H           6.1638    0.4363   -2.3577 H       1  UNL1        0.0625
@<TRIPOS>BOND
     1     1     2    2
     2     2     3    1
     3     3     4    1
     4     4     5    1
     5     5     6    1
     6     6     7    1
     7     7     8    1
     8     8     9    1
     9     9    10    1
    10     9    11    1
    11    11    12   ar
    12    12    13   ar
    13    13    14   ar
    14    14    15    1
    15    14    16   ar
    16    16    17   ar
    17     9    18    1
    18    18    19    1
    19     2    20    1
    20    20    21   ar
    21    21    22   ar
    22    22    23   ar
    23    23    24    1
    24    23    25   ar
    25    25    26   ar
    26    19     6    1
    27    26    20   ar
    28    17    11   ar
    29     3    27    1
    30     3    28    1
    31     4    29    1
    32     4    30    1
    33     5    31    1
    34     5    32    1
    35     7    33    1
    36     7    34    1
    37     8    35    1
    38     8    36    1
    39    10    37    1
    40    12    38    1
    41    13    39    1
    42    16    40    1
    43    17    41    1
    44    18    42    1
    45    18    43    1
    46    19    44    1
    47    19    45    1
    48    21    46    1
    49    22    47    1
    50    25    48    1
    51    26    49    1
