@<TRIPOS>MOLECULE
*****
 57 61 0 0 0
SMALL
GASTEIGER

@<TRIPOS>ATOM
      1 C           4.2480    3.7850   -2.7025 C.3     1  UNL1        0.0007
      2 C           2.5461    3.6965   -2.4458 C.2     1  UNL1        0.1867
      3 O           2.0790    4.6102   -2.7650 O.2     1  UNL1       -0.2901
      4 C           2.3626    2.3719   -1.8444 C.ar    1  UNL1        0.1671
      5 N           3.0096    1.5201   -1.3488 N.ar    1  UNL1       -0.1538
      6 N           2.7577    0.5114   -0.6631 N.ar    1  UNL1       -0.2073
      7 C           3.8127   -0.2985    0.0018 C.ar    1  UNL1        0.0682
      8 C           3.7399   -1.5026    0.4205 C.ar    1  UNL1       -0.0359
      9 C           4.1373   -2.6507    0.9520 C.ar    1  UNL1       -0.0568
     10 C           5.8084   -1.9409    1.2069 C.ar    1  UNL1       -0.0503
     11 C           6.5307   -2.9993    1.8564 C.3     1  UNL1       -0.0397
     12 C           5.9675   -0.8150    0.8300 C.ar    1  UNL1       -0.0568
     13 C           5.0787    0.0900    0.2253 C.ar    1  UNL1       -0.0359
     14 C           1.4680    0.3232   -0.4206 C.ar    1  UNL1        0.1982
     15 N           0.7443   -0.5099    0.2900 N.2     1  UNL1       -0.2011
     16 C          -0.6054   -0.4948    0.4284 C.ar    1  UNL1        0.1740
     17 N          -1.2283    0.4341    1.3067 N.ar    1  UNL1       -0.2266
     18 C          -2.4942    0.5385    1.5486 C.ar    1  UNL1        0.0740
     19 C          -3.0382    1.8498    2.2803 C.ar    1  UNL1        0.0004
     20 C          -2.0356    2.7308    2.3817 C.ar    1  UNL1       -0.0526
     21 C          -2.6650    4.1683    2.3599 C.ar    1  UNL1       -0.0611
     22 C          -3.9661    4.2340    2.2811 C.ar    1  UNL1       -0.0617
     23 C          -4.8950    3.2576    2.2033 C.ar    1  UNL1       -0.0611
     24 C          -4.3799    1.8685    2.1958 C.ar    1  UNL1       -0.0526
     25 C          -3.4094   -0.3199    0.9312 C.ar    1  UNL1       -0.0266
     26 C          -2.9217   -1.2454    0.0421 C.ar    1  UNL1        0.0051
     27 C          -3.8042   -1.9564   -0.9602 C.ar    1  UNL1       -0.0165
     28 C          -4.0255   -3.4065   -0.3625 C.ar    1  UNL1       -0.0540
     29 C          -4.7301   -4.1101   -1.3182 C.ar    1  UNL1       -0.0612
     30 C          -5.1799   -3.5726   -2.6356 C.ar    1  UNL1       -0.0617
     31 C          -4.8862   -2.4119   -2.9219 C.ar    1  UNL1       -0.0612
     32 C          -4.1663   -1.5906   -2.0197 C.ar    1  UNL1       -0.0540
     33 C          -1.5404   -1.3211   -0.1894 C.ar    1  UNL1        0.1036
     34 C          -1.0795   -2.2086   -0.9648 C.1     1  UNL1        0.1035
     35 N          -0.5509   -3.2807   -1.8804 N.1     1  UNL1       -0.1907
     36 S           0.6370    1.7389   -1.2675 S.2     1  UNL1       -0.0250
     37 H           4.4839    2.7443   -2.6845 H       1  UNL1        0.0310
     38 H           4.4395    4.3753   -1.8445 H       1  UNL1        0.0310
     39 H           4.2835    4.2524   -3.6710 H       1  UNL1        0.0310
     40 H           2.5100   -1.8226    0.2008 H       1  UNL1        0.0639
     41 H           4.2485   -3.4941    1.3213 H       1  UNL1        0.0621
     42 H           5.9375   -3.5155    2.6660 H       1  UNL1        0.0278
     43 H           7.3285   -2.4326    2.5205 H       1  UNL1        0.0278
     44 H           7.1237   -3.7120    1.2681 H       1  UNL1        0.0278
     45 H           7.0008   -0.2753    1.0086 H       1  UNL1        0.0621
     46 H           5.4840    1.0713   -0.1391 H       1  UNL1        0.0639
     47 H          -1.0419    2.7477    2.4968 H       1  UNL1        0.0624
     48 H          -1.8540    4.8401    2.3795 H       1  UNL1        0.0618
     49 H          -4.3496    5.3246    2.3162 H       1  UNL1        0.0618
     50 H          -5.9445    3.4055    2.1264 H       1  UNL1        0.0618
     51 H          -5.0607    1.1220    2.1466 H       1  UNL1        0.0624
     52 H          -4.4486   -0.2294    1.0943 H       1  UNL1        0.0645
     53 H          -3.6401   -3.6293    0.5511 H       1  UNL1        0.0624
     54 H          -4.9809   -5.1751   -1.1805 H       1  UNL1        0.0618
     55 H          -5.7492   -4.2394   -3.2315 H       1  UNL1        0.0618
     56 H          -5.1051   -1.8974   -3.9106 H       1  UNL1        0.0618
     57 H          -3.9911   -0.5537   -2.4662 H       1  UNL1        0.0624
@<TRIPOS>BOND
     1     1     2    1
     2     2     3    2
     3     2     4    1
     4     4     5   ar
     5     5     6   ar
     6     6     7    1
     7     7     8   ar
     8     8     9   ar
     9     9    10   ar
    10    10    11    1
    11    10    12   ar
    12    12    13   ar
    13     6    14   ar
    14    14    15    2
    15    15    16    1
    16    16    17   ar
    17    17    18   ar
    18    18    19    1
    19    19    20   ar
    20    20    21   ar
    21    21    22   ar
    22    22    23   ar
    23    23    24   ar
    24    18    25   ar
    25    25    26   ar
    26    26    27    1
    27    27    28   ar
    28    28    29   ar
    29    29    30   ar
    30    30    31   ar
    31    31    32   ar
    32    26    33   ar
    33    33    34    1
    34    34    35    3
    35    14    36   ar
    36    36     4   ar
    37    13     7   ar
    38    33    16   ar
    39    24    19   ar
    40    32    27   ar
    41     1    37    1
    42     1    38    1
    43     1    39    1
    44     8    40    1
    45     9    41    1
    46    11    42    1
    47    11    43    1
    48    11    44    1
    49    12    45    1
    50    13    46    1
    51    20    47    1
    52    21    48    1
    53    22    49    1
    54    23    50    1
    55    24    51    1
    56    25    52    1
    57    28    53    1
    58    29    54    1
    59    30    55    1
    60    31    56    1
    61    32    57    1
