
     RDKit          3D

 57 61  0  0  0  0  0  0  0  0999 V2000
    4.2480    3.7850   -2.7025 C   0  0  0  0  0  0  0  0  0  0  0  0
    2.5461    3.6965   -2.4458 C   0  0  0  0  0  0  0  0  0  0  0  0
    2.0790    4.6102   -2.7650 O   0  0  0  0  0  0  0  0  0  0  0  0
    2.3626    2.3719   -1.8444 C   0  0  0  0  0  0  0  0  0  0  0  0
    3.0096    1.5201   -1.3488 N   0  0  0  0  0  0  0  0  0  0  0  0
    2.7577    0.5114   -0.6631 N   0  0  0  0  0  0  0  0  0  0  0  0
    3.8127   -0.2985    0.0018 C   0  0  0  0  0  0  0  0  0  0  0  0
    3.7399   -1.5026    0.4205 C   0  0  0  0  0  0  0  0  0  0  0  0
    4.1373   -2.6507    0.9520 C   0  0  0  0  0  0  0  0  0  0  0  0
    5.8084   -1.9409    1.2069 C   0  0  0  0  0  0  0  0  0  0  0  0
    6.5307   -2.9993    1.8564 C   0  0  0  0  0  0  0  0  0  0  0  0
    5.9675   -0.8150    0.8300 C   0  0  0  0  0  0  0  0  0  0  0  0
    5.0787    0.0900    0.2253 C   0  0  0  0  0  0  0  0  0  0  0  0
    1.4680    0.3232   -0.4206 C   0  0  0  0  0  0  0  0  0  0  0  0
    0.7443   -0.5099    0.2900 N   0  0  0  0  0  0  0  0  0  0  0  0
   -0.6054   -0.4948    0.4284 C   0  0  0  0  0  0  0  0  0  0  0  0
   -1.2283    0.4341    1.3067 N   0  0  0  0  0  0  0  0  0  0  0  0
   -2.4942    0.5385    1.5486 C   0  0  0  0  0  0  0  0  0  0  0  0
   -3.0382    1.8498    2.2803 C   0  0  0  0  0  0  0  0  0  0  0  0
   -2.0356    2.7308    2.3817 C   0  0  0  0  0  0  0  0  0  0  0  0
   -2.6650    4.1683    2.3599 C   0  0  0  0  0  0  0  0  0  0  0  0
   -3.9661    4.2340    2.2811 C   0  0  0  0  0  0  0  0  0  0  0  0
   -4.8950    3.2576    2.2033 C   0  0  0  0  0  0  0  0  0  0  0  0
   -4.3799    1.8685    2.1958 C   0  0  0  0  0  0  0  0  0  0  0  0
   -3.4094   -0.3199    0.9312 C   0  0  0  0  0  0  0  0  0  0  0  0
   -2.9217   -1.2454    0.0421 C   0  0  0  0  0  0  0  0  0  0  0  0
   -3.8042   -1.9564   -0.9602 C   0  0  0  0  0  0  0  0  0  0  0  0
   -4.0255   -3.4065   -0.3625 C   0  0  0  0  0  0  0  0  0  0  0  0
   -4.7301   -4.1101   -1.3182 C   0  0  0  0  0  0  0  0  0  0  0  0
   -5.1799   -3.5726   -2.6356 C   0  0  0  0  0  0  0  0  0  0  0  0
   -4.8862   -2.4119   -2.9219 C   0  0  0  0  0  0  0  0  0  0  0  0
   -4.1663   -1.5906   -2.0197 C   0  0  0  0  0  0  0  0  0  0  0  0
   -1.5404   -1.3211   -0.1894 C   0  0  0  0  0  0  0  0  0  0  0  0
   -1.0795   -2.2086   -0.9648 C   0  0  0  0  0  0  0  0  0  0  0  0
   -0.5509   -3.2807   -1.8804 N   0  0  0  0  0  0  0  0  0  0  0  0
    0.6370    1.7389   -1.2675 S   0  0  0  0  0  0  0  0  0  0  0  0
    4.4839    2.7443   -2.6845 H   0  0  0  0  0  0  0  0  0  0  0  0
    4.4395    4.3753   -1.8445 H   0  0  0  0  0  0  0  0  0  0  0  0
    4.2835    4.2524   -3.6710 H   0  0  0  0  0  0  0  0  0  0  0  0
    2.5100   -1.8226    0.2008 H   0  0  0  0  0  0  0  0  0  0  0  0
    4.2485   -3.4941    1.3213 H   0  0  0  0  0  0  0  0  0  0  0  0
    5.9375   -3.5155    2.6660 H   0  0  0  0  0  0  0  0  0  0  0  0
    7.3285   -2.4326    2.5205 H   0  0  0  0  0  0  0  0  0  0  0  0
    7.1237   -3.7120    1.2681 H   0  0  0  0  0  0  0  0  0  0  0  0
    7.0008   -0.2753    1.0086 H   0  0  0  0  0  0  0  0  0  0  0  0
    5.4840    1.0713   -0.1391 H   0  0  0  0  0  0  0  0  0  0  0  0
   -1.0419    2.7477    2.4968 H   0  0  0  0  0  0  0  0  0  0  0  0
   -1.8540    4.8401    2.3795 H   0  0  0  0  0  0  0  0  0  0  0  0
   -4.3496    5.3246    2.3162 H   0  0  0  0  0  0  0  0  0  0  0  0
   -5.9445    3.4055    2.1264 H   0  0  0  0  0  0  0  0  0  0  0  0
   -5.0607    1.1220    2.1466 H   0  0  0  0  0  0  0  0  0  0  0  0
   -4.4486   -0.2294    1.0943 H   0  0  0  0  0  0  0  0  0  0  0  0
   -3.6401   -3.6293    0.5511 H   0  0  0  0  0  0  0  0  0  0  0  0
   -4.9809   -5.1751   -1.1805 H   0  0  0  0  0  0  0  0  0  0  0  0
   -5.7492   -4.2394   -3.2315 H   0  0  0  0  0  0  0  0  0  0  0  0
   -5.1051   -1.8974   -3.9106 H   0  0  0  0  0  0  0  0  0  0  0  0
   -3.9911   -0.5537   -2.4662 H   0  0  0  0  0  0  0  0  0  0  0  0
  1  2  1  0
  2  3  2  0
  2  4  1  0
  4  5  2  0
  5  6  1  0
  6  7  1  0
  7  8  2  0
  8  9  1  0
  9 10  2  0
 10 11  1  0
 10 12  1  0
 12 13  2  0
  6 14  1  0
 14 15  2  0
 15 16  1  0
 16 17  2  0
 17 18  1  0
 18 19  1  0
 19 20  2  0
 20 21  1  0
 21 22  2  0
 22 23  1  0
 23 24  2  0
 18 25  2  0
 25 26  1  0
 26 27  1  0
 27 28  2  0
 28 29  1  0
 29 30  2  0
 30 31  1  0
 31 32  2  0
 26 33  2  0
 33 34  1  0
 34 35  3  0
 14 36  1  0
 36  4  1  0
 13  7  1  0
 33 16  1  0
 24 19  1  0
 32 27  1  0
  1 37  1  0
  1 38  1  0
  1 39  1  0
  8 40  1  0
  9 41  1  0
 11 42  1  0
 11 43  1  0
 11 44  1  0
 12 45  1  0
 13 46  1  0
 20 47  1  0
 21 48  1  0
 22 49  1  0
 23 50  1  0
 24 51  1  0
 25 52  1  0
 28 53  1  0
 29 54  1  0
 30 55  1  0
 31 56  1  0
 32 57  1  0
M  END
$$$$
