@<TRIPOS>MOLECULE
*****
 49 52 0 0 0
SMALL
GASTEIGER

@<TRIPOS>ATOM
      1 N           6.9206    0.5588    1.4945 N.am    1  UNL1       -0.3253
      2 C           7.2416   -0.7589    1.1212 C.2     1  UNL1        0.2431
      3 O           8.1393   -1.3817    1.7224 O.2     1  UNL1       -0.2704
      4 C           6.5092   -1.3803    0.0240 C.ar    1  UNL1        0.0580
      5 C           6.7560   -2.6574   -0.4040 C.ar    1  UNL1        0.0399
      6 N           6.0498   -3.1769   -1.4193 N.ar    1  UNL1       -0.2589
      7 C           5.0942   -2.4806   -2.0421 C.ar    1  UNL1        0.0692
      8 C           4.7658   -1.1622   -1.6768 C.ar    1  UNL1        0.1397
      9 O           3.7957   -0.5613   -2.3678 O.3     1  UNL1       -0.4858
     10 C           3.1690    0.6323   -2.3638 C.3     1  UNL1        0.1148
     11 C           2.4109    1.0096   -1.1418 C.ar    1  UNL1       -0.0087
     12 C           2.9146    1.8227   -0.1624 C.ar    1  UNL1       -0.0552
     13 C           2.2329    2.1712    0.9732 C.ar    1  UNL1       -0.0596
     14 C           0.9592    1.6774    1.1494 C.ar    1  UNL1       -0.0404
     15 C           0.4029    0.8545    0.1944 C.ar    1  UNL1        0.0340
     16 N          -0.9330    0.3534    0.4071 N.am    1  UNL1       -0.2815
     17 C          -2.0743    1.0489   -0.0452 C.2     1  UNL1        0.2497
     18 O          -1.8780    2.1352   -0.6479 O.2     1  UNL1       -0.2698
     19 C          -3.4377    0.5745    0.1511 C.ar    1  UNL1        0.0551
     20 C          -3.7308   -0.6045    0.8014 C.ar    1  UNL1       -0.0460
     21 C          -5.0385   -1.0501    0.9843 C.ar    1  UNL1       -0.0320
     22 C          -6.0561   -0.2652    0.4877 C.ar    1  UNL1        0.1060
     23 C          -7.4395   -0.7122    0.6676 C.ar    1  UNL1        0.1529
     24 C          -8.5854   -0.0431    0.2295 C.ar    1  UNL1       -0.0144
     25 C          -9.6751   -0.7985    0.5990 C.ar    1  UNL1       -0.0233
     26 C          -9.1387   -1.9013    1.2502 C.ar    1  UNL1        0.0926
     27 O          -7.8312   -1.8098    1.2671 O.2     1  UNL1       -0.4614
     28 N          -5.7862    0.8871   -0.1487 N.ar    1  UNL1       -0.2511
     29 C          -4.5007    1.3130   -0.3217 C.ar    1  UNL1        0.0405
     30 C           1.1201    0.5298   -0.9287 C.ar    1  UNL1       -0.0341
     31 C           5.5051   -0.6573   -0.6354 C.ar    1  UNL1       -0.0048
     32 H           6.7398    1.2816    0.7739 H       1  UNL1        0.1453
     33 H           6.8612    0.8219    2.4925 H       1  UNL1        0.1453
     34 H           7.5221   -3.2126    0.0972 H       1  UNL1        0.0837
     35 H           4.5273   -2.9139   -2.8660 H       1  UNL1        0.0867
     36 H           3.8638    1.5062   -2.5489 H       1  UNL1        0.0748
     37 H           2.4192    0.7479   -3.2154 H       1  UNL1        0.0748
     38 H           3.9131    2.2477   -0.2558 H       1  UNL1        0.0621
     39 H           2.6219    2.8124    1.7529 H       1  UNL1        0.0618
     40 H           0.3663    1.9122    2.0210 H       1  UNL1        0.0636
     41 H          -1.0579   -0.5418    0.9057 H       1  UNL1        0.1551
     42 H          -2.9530   -1.2247    1.1924 H       1  UNL1        0.0626
     43 H          -5.2666   -1.9710    1.4923 H       1  UNL1        0.0640
     44 H          -8.5809    0.8901   -0.2974 H       1  UNL1        0.0656
     45 H         -10.7233   -0.5963    0.4298 H       1  UNL1        0.0649
     46 H          -9.7794   -2.6810    1.6570 H       1  UNL1        0.1029
     47 H          -4.3512    2.2463   -0.8409 H       1  UNL1        0.0837
     48 H           0.6980   -0.1111   -1.6814 H       1  UNL1        0.0640
     49 H           5.2977    0.3490   -0.3273 H       1  UNL1        0.0663
@<TRIPOS>BOND
     1     1     2   am
     2     2     3    2
     3     2     4    1
     4     4     5   ar
     5     5     6   ar
     6     6     7   ar
     7     7     8   ar
     8     8     9    1
     9     9    10    1
    10    10    11    1
    11    11    12   ar
    12    12    13   ar
    13    13    14   ar
    14    14    15   ar
    15    15    16    1
    16    16    17   am
    17    17    18    2
    18    17    19    1
    19    19    20   ar
    20    20    21   ar
    21    21    22   ar
    22    22    23    1
    23    23    24   ar
    24    24    25   ar
    25    25    26   ar
    26    26    27   ar
    27    22    28   ar
    28    28    29   ar
    29    15    30   ar
    30     8    31   ar
    31    31     4   ar
    32    30    11   ar
    33    29    19   ar
    34    27    23   ar
    35     1    32    1
    36     1    33    1
    37     5    34    1
    38     7    35    1
    39    10    36    1
    40    10    37    1
    41    12    38    1
    42    13    39    1
    43    14    40    1
    44    16    41    1
    45    20    42    1
    46    21    43    1
    47    24    44    1
    48    25    45    1
    49    26    46    1
    50    29    47    1
    51    30    48    1
    52    31    49    1
