
     RDKit          3D

 49 52  0  0  0  0  0  0  0  0999 V2000
    6.9206    0.5588    1.4945 N   0  0  0  0  0  0  0  0  0  0  0  0
    7.2416   -0.7589    1.1212 C   0  0  0  0  0  0  0  0  0  0  0  0
    8.1393   -1.3817    1.7224 O   0  0  0  0  0  0  0  0  0  0  0  0
    6.5092   -1.3803    0.0240 C   0  0  0  0  0  0  0  0  0  0  0  0
    6.7560   -2.6574   -0.4040 C   0  0  0  0  0  0  0  0  0  0  0  0
    6.0498   -3.1769   -1.4193 N   0  0  0  0  0  0  0  0  0  0  0  0
    5.0942   -2.4806   -2.0421 C   0  0  0  0  0  0  0  0  0  0  0  0
    4.7658   -1.1622   -1.6768 C   0  0  0  0  0  0  0  0  0  0  0  0
    3.7957   -0.5613   -2.3678 O   0  0  0  0  0  0  0  0  0  0  0  0
    3.1690    0.6323   -2.3638 C   0  0  0  0  0  0  0  0  0  0  0  0
    2.4109    1.0096   -1.1418 C   0  0  0  0  0  0  0  0  0  0  0  0
    2.9146    1.8227   -0.1624 C   0  0  0  0  0  0  0  0  0  0  0  0
    2.2329    2.1712    0.9732 C   0  0  0  0  0  0  0  0  0  0  0  0
    0.9592    1.6774    1.1494 C   0  0  0  0  0  0  0  0  0  0  0  0
    0.4029    0.8545    0.1944 C   0  0  0  0  0  0  0  0  0  0  0  0
   -0.9330    0.3534    0.4071 N   0  0  0  0  0  0  0  0  0  0  0  0
   -2.0743    1.0489   -0.0452 C   0  0  0  0  0  0  0  0  0  0  0  0
   -1.8780    2.1352   -0.6479 O   0  0  0  0  0  0  0  0  0  0  0  0
   -3.4377    0.5745    0.1511 C   0  0  0  0  0  0  0  0  0  0  0  0
   -3.7308   -0.6045    0.8014 C   0  0  0  0  0  0  0  0  0  0  0  0
   -5.0385   -1.0501    0.9843 C   0  0  0  0  0  0  0  0  0  0  0  0
   -6.0561   -0.2652    0.4877 C   0  0  0  0  0  0  0  0  0  0  0  0
   -7.4395   -0.7122    0.6676 C   0  0  0  0  0  0  0  0  0  0  0  0
   -8.5854   -0.0431    0.2295 C   0  0  0  0  0  0  0  0  0  0  0  0
   -9.6751   -0.7985    0.5990 C   0  0  0  0  0  0  0  0  0  0  0  0
   -9.1387   -1.9013    1.2502 C   0  0  0  0  0  0  0  0  0  0  0  0
   -7.8312   -1.8098    1.2671 O   0  0  0  0  0  0  0  0  0  0  0  0
   -5.7862    0.8871   -0.1487 N   0  0  0  0  0  0  0  0  0  0  0  0
   -4.5007    1.3130   -0.3217 C   0  0  0  0  0  0  0  0  0  0  0  0
    1.1201    0.5298   -0.9287 C   0  0  0  0  0  0  0  0  0  0  0  0
    5.5051   -0.6573   -0.6354 C   0  0  0  0  0  0  0  0  0  0  0  0
    6.7398    1.2816    0.7739 H   0  0  0  0  0  0  0  0  0  0  0  0
    6.8612    0.8219    2.4925 H   0  0  0  0  0  0  0  0  0  0  0  0
    7.5221   -3.2126    0.0972 H   0  0  0  0  0  0  0  0  0  0  0  0
    4.5273   -2.9139   -2.8660 H   0  0  0  0  0  0  0  0  0  0  0  0
    3.8638    1.5062   -2.5489 H   0  0  0  0  0  0  0  0  0  0  0  0
    2.4192    0.7479   -3.2154 H   0  0  0  0  0  0  0  0  0  0  0  0
    3.9131    2.2477   -0.2558 H   0  0  0  0  0  0  0  0  0  0  0  0
    2.6219    2.8124    1.7529 H   0  0  0  0  0  0  0  0  0  0  0  0
    0.3663    1.9122    2.0210 H   0  0  0  0  0  0  0  0  0  0  0  0
   -1.0579   -0.5418    0.9057 H   0  0  0  0  0  0  0  0  0  0  0  0
   -2.9530   -1.2247    1.1924 H   0  0  0  0  0  0  0  0  0  0  0  0
   -5.2666   -1.9710    1.4923 H   0  0  0  0  0  0  0  0  0  0  0  0
   -8.5809    0.8901   -0.2974 H   0  0  0  0  0  0  0  0  0  0  0  0
  -10.7233   -0.5963    0.4298 H   0  0  0  0  0  0  0  0  0  0  0  0
   -9.7794   -2.6810    1.6570 H   0  0  0  0  0  0  0  0  0  0  0  0
   -4.3512    2.2463   -0.8409 H   0  0  0  0  0  0  0  0  0  0  0  0
    0.6980   -0.1111   -1.6814 H   0  0  0  0  0  0  0  0  0  0  0  0
    5.2977    0.3490   -0.3273 H   0  0  0  0  0  0  0  0  0  0  0  0
  1  2  1  0
  2  3  2  0
  2  4  1  0
  4  5  2  0
  5  6  1  0
  6  7  2  0
  7  8  1  0
  8  9  1  0
  9 10  1  0
 10 11  1  0
 11 12  2  0
 12 13  1  0
 13 14  2  0
 14 15  1  0
 15 16  1  0
 16 17  1  0
 17 18  2  0
 17 19  1  0
 19 20  2  0
 20 21  1  0
 21 22  2  0
 22 23  1  0
 23 24  2  0
 24 25  1  0
 25 26  2  0
 26 27  1  0
 22 28  1  0
 28 29  2  0
 15 30  2  0
  8 31  2  0
 31  4  1  0
 30 11  1  0
 29 19  1  0
 27 23  1  0
  1 32  1  0
  1 33  1  0
  5 34  1  0
  7 35  1  0
 10 36  1  0
 10 37  1  0
 12 38  1  0
 13 39  1  0
 14 40  1  0
 16 41  1  0
 20 42  1  0
 21 43  1  0
 24 44  1  0
 25 45  1  0
 26 46  1  0
 29 47  1  0
 30 48  1  0
 31 49  1  0
M  END
$$$$
