@<TRIPOS>MOLECULE
*****
 40 43 0 0 0
SMALL
GASTEIGER

@<TRIPOS>ATOM
      1 C           3.1454   -3.1194    0.9128 C.3     1  UNL1       -0.0370
      2 C           2.9837   -1.8486    0.1214 C.ar    1  UNL1       -0.0146
      3 C           2.0605   -0.8891    0.4781 C.ar    1  UNL1       -0.0469
      4 C           1.9213    0.2706   -0.2531 C.ar    1  UNL1        0.0029
      5 C           0.9552    1.3065    0.0949 C.ar    1  UNL1        0.0970
      6 N           1.2772    2.5778    0.4760 N.ar    1  UNL1       -0.2320
      7 C           0.1647    3.2821    0.7280 C.ar    1  UNL1        0.1074
      8 C           0.0459    4.6963    1.1678 C.3     1  UNL1       -0.0063
      9 N          -0.8610    2.4412    0.5017 N.ar    1  UNL1       -0.3304
     10 C          -2.2605    2.8282    0.6654 C.3     1  UNL1        0.0135
     11 C          -0.4103    1.2476    0.1199 C.ar    1  UNL1        0.0764
     12 C          -1.2383    0.1051   -0.2063 C.ar    1  UNL1        0.0018
     13 C          -1.2806   -0.4933   -1.4475 C.ar    1  UNL1       -0.0505
     14 C          -2.0603   -1.5718   -1.7649 C.ar    1  UNL1       -0.0346
     15 C          -2.8896   -2.1406   -0.7918 C.ar    1  UNL1        0.0782
     16 N          -3.7046   -3.1768   -0.9190 N.ar    1  UNL1       -0.2474
     17 C          -4.3856   -3.6459   -0.1261 C.ar    1  UNL1        0.0659
     18 S          -4.0020   -2.5328    1.3526 S.2     1  UNL1       -0.0754
     19 C          -2.8624   -1.5674    0.4338 C.ar    1  UNL1        0.0396
     20 C          -2.0579   -0.4534    0.7643 C.ar    1  UNL1       -0.0367
     21 C           2.7444    0.4199   -1.3481 C.ar    1  UNL1       -0.0498
     22 C           3.6737   -0.5413   -1.7109 C.ar    1  UNL1       -0.0256
     23 C           3.8079   -1.6947   -0.9787 C.ar    1  UNL1        0.1263
     24 F           4.7134   -2.6670   -1.3057 F       1  UNL1       -0.2052
     25 H           3.3455   -3.9828    0.2438 H       1  UNL1        0.0278
     26 H           2.2593   -3.2628    1.5511 H       1  UNL1        0.0278
     27 H           4.0552   -3.0278    1.5638 H       1  UNL1        0.0278
     28 H           1.4489   -1.0722    1.3483 H       1  UNL1        0.0628
     29 H           0.7575    4.9037    2.0167 H       1  UNL1        0.0307
     30 H           0.3446    5.3992    0.3485 H       1  UNL1        0.0307
     31 H          -0.9615    4.9129    1.5778 H       1  UNL1        0.0307
     32 H          -2.3894    3.9091    0.4279 H       1  UNL1        0.0456
     33 H          -2.5755    2.6794    1.7243 H       1  UNL1        0.0456
     34 H          -2.8911    2.2793   -0.0564 H       1  UNL1        0.0456
     35 H          -0.6286   -0.0415   -2.2036 H       1  UNL1        0.0625
     36 H          -1.9872   -1.9325   -2.7804 H       1  UNL1        0.0639
     37 H          -5.1281   -4.4690    0.0302 H       1  UNL1        0.0907
     38 H          -2.1018   -0.0601    1.7768 H       1  UNL1        0.0636
     39 H           2.6685    1.3216   -1.9550 H       1  UNL1        0.0625
     40 H           4.3035   -0.3896   -2.5784 H       1  UNL1        0.0646
@<TRIPOS>BOND
     1     1     2    1
     2     2     3   ar
     3     3     4   ar
     4     4     5    1
     5     5     6   ar
     6     6     7   ar
     7     7     8    1
     8     7     9   ar
     9     9    10    1
    10     9    11   ar
    11    11    12    1
    12    12    13   ar
    13    13    14   ar
    14    14    15   ar
    15    15    16   ar
    16    16    17   ar
    17    17    18   ar
    18    18    19   ar
    19    19    20   ar
    20     4    21   ar
    21    21    22   ar
    22    22    23   ar
    23    23    24    1
    24    23     2   ar
    25    11     5   ar
    26    20    12   ar
    27    19    15   ar
    28     1    25    1
    29     1    26    1
    30     1    27    1
    31     3    28    1
    32     8    29    1
    33     8    30    1
    34     8    31    1
    35    10    32    1
    36    10    33    1
    37    10    34    1
    38    13    35    1
    39    14    36    1
    40    17    37    1
    41    20    38    1
    42    21    39    1
    43    22    40    1
