@<TRIPOS>MOLECULE
*****
 29 30 0 0 0
SMALL
GASTEIGER

@<TRIPOS>ATOM
      1 O           2.2291   -1.7789    0.0788 O.3     1  UNL1       -0.3924
      2 C           2.3322   -1.0776   -1.1172 C.3     1  UNL1        0.0730
      3 C           1.1889   -0.0602   -1.2492 C.3     1  UNL1        0.1131
      4 O          -0.0298   -0.6291   -1.2321 O.3     1  UNL1       -0.3376
      5 C          -0.9066   -0.3927   -0.2358 C.3     1  UNL1        0.2443
      6 N          -2.2361   -0.2974   -0.8651 N.am    1  UNL1       -0.2615
      7 C          -3.2457   -0.7023    0.0646 C.2     1  UNL1        0.3085
      8 O          -4.4799   -0.3965    0.0265 O.2     1  UNL1       -0.2523
      9 N          -2.5528   -1.5167    1.0287 N.am    1  UNL1       -0.2362
     10 C          -1.1605   -1.5779    0.6555 C.2     1  UNL1        0.2740
     11 O          -0.5622   -2.5844    1.1696 O.2     1  UNL1       -0.2702
     12 C          -0.7602    0.8694    0.5388 C.3     1  UNL1        0.1380
     13 O          -1.0670    1.9372   -0.3301 O.3     1  UNL1       -0.3840
     14 C           0.6666    1.0401    0.9501 C.3     1  UNL1        0.1141
     15 O           1.0929    0.1189    1.8827 O.3     1  UNL1       -0.3864
     16 C           1.4824    1.0543   -0.3118 C.3     1  UNL1        0.1119
     17 O           1.2641    2.2927   -0.9278 O.3     1  UNL1       -0.3865
     18 H           3.1245   -1.9099    0.4844 H       1  UNL1        0.2095
     19 H           3.3059   -0.5454   -1.0985 H       1  UNL1        0.0584
     20 H           2.3673   -1.7619   -1.9869 H       1  UNL1        0.0584
     21 H           1.3251    0.3480   -2.2860 H       1  UNL1        0.0647
     22 H          -2.4660    0.0174   -1.8538 H       1  UNL1        0.1535
     23 H          -3.1245   -1.9272    1.8210 H       1  UNL1        0.1592
     24 H          -1.4803    0.8471    1.3766 H       1  UNL1        0.0672
     25 H          -2.0362    2.1157   -0.3422 H       1  UNL1        0.2101
     26 H           0.7620    2.0608    1.4102 H       1  UNL1        0.0648
     27 H           0.7402    0.3782    2.7721 H       1  UNL1        0.2100
     28 H           2.5523    1.0647   -0.0121 H       1  UNL1        0.0647
     29 H           1.6746    3.0138   -0.4109 H       1  UNL1        0.2100
@<TRIPOS>BOND
     1     1     2    1
     2     2     3    1
     3     3     4    1
     4     5     4    1
     5     5     6    1
     6     6     7   am
     7     7     8    2
     8     7     9   am
     9     9    10   am
    10    10    11    2
    11     5    12    1
    12    12    13    1
    13    12    14    1
    14    14    15    1
    15    14    16    1
    16    16    17    1
    17    16     3    1
    18    10     5    1
    19     1    18    1
    20     2    19    1
    21     2    20    1
    22     3    21    1
    23     6    22    1
    24     9    23    1
    25    12    24    1
    26    13    25    1
    27    14    26    1
    28    15    27    1
    29    16    28    1
    30    17    29    1
