@<TRIPOS>MOLECULE
*****
 43 46 0 0 0
SMALL
GASTEIGER

@<TRIPOS>ATOM
      1 O           4.0481    0.8355   -1.7795 O.2     1  UNL1       -0.2490
      2 C           3.9564    1.8286   -1.0307 C.2     1  UNL1        0.3247
      3 O           4.6541    2.9981   -1.2942 O.3     1  UNL1       -0.4794
      4 C           3.0974    1.7698    0.1550 C.3     1  UNL1        0.1204
      5 N           2.4315    0.4921    0.3106 N.ar    1  UNL1       -0.3327
      6 C           1.2284    0.1374   -0.1999 C.ar    1  UNL1        0.0266
      7 C           0.9387   -1.1564    0.1685 C.ar    1  UNL1       -0.0016
      8 C           2.0167   -1.5791    0.9276 C.ar    1  UNL1        0.0048
      9 C           2.2268   -2.7841    1.5358 C.ar    1  UNL1       -0.0523
     10 C           3.4017   -2.9501    2.2453 C.ar    1  UNL1       -0.0611
     11 C           4.3150   -1.9144    2.3202 C.ar    1  UNL1       -0.0598
     12 C           4.1012   -0.6935    1.7040 C.ar    1  UNL1       -0.0376
     13 C           2.9181   -0.5446    0.9970 C.ar    1  UNL1        0.0501
     14 C          -0.3179   -1.7934   -0.2607 C.3     1  UNL1        0.0423
     15 N          -1.3268   -0.7635   -0.4466 N.am    1  UNL1       -0.2928
     16 C          -2.6002   -0.9592    0.1135 C.2     1  UNL1        0.2470
     17 O          -2.7984   -2.0452    0.7626 O.2     1  UNL1       -0.2700
     18 C          -3.7104   -0.0412    0.0210 C.ar    1  UNL1        0.0383
     19 C          -3.7003    1.1895    0.6192 C.ar    1  UNL1       -0.0495
     20 C          -4.8069    2.0388    0.5042 C.ar    1  UNL1       -0.0597
     21 C          -5.9235    1.6515   -0.2104 C.ar    1  UNL1       -0.0433
     22 C          -5.9058    0.4013   -0.8044 C.ar    1  UNL1        0.0417
     23 CL         -7.3463   -0.0753   -1.7075 Cl      1  UNL1       -0.0835
     24 C          -4.8295   -0.4514   -0.7061 C.ar    1  UNL1       -0.0313
     25 C          -1.0527    0.4396   -1.1846 C.3     1  UNL1        0.0207
     26 C           0.3252    0.9659   -1.0255 C.3     1  UNL1        0.0039
     27 H           5.5526    2.9268   -1.7757 H       1  UNL1        0.2951
     28 H           3.6548    1.9447    1.1028 H       1  UNL1        0.0607
     29 H           2.2834    2.5345    0.0864 H       1  UNL1        0.0607
     30 H           1.4807   -3.5621    1.4448 H       1  UNL1        0.0624
     31 H           3.5927   -3.9129    2.7440 H       1  UNL1        0.0618
     32 H           5.2323   -2.1085    2.9009 H       1  UNL1        0.0618
     33 H           4.8317    0.0964    1.7785 H       1  UNL1        0.0638
     34 H          -0.7097   -2.5678    0.4014 H       1  UNL1        0.0515
     35 H          -0.1285   -2.2137   -1.2827 H       1  UNL1        0.0515
     36 H          -2.8276    1.4824    1.1808 H       1  UNL1        0.0625
     37 H          -4.7577    3.0123    0.9940 H       1  UNL1        0.0618
     38 H          -6.7799    2.3179   -0.2961 H       1  UNL1        0.0632
     39 H          -4.8322   -1.4324   -1.1757 H       1  UNL1        0.0640
     40 H          -1.7990    1.2010   -0.9222 H       1  UNL1        0.0468
     41 H          -1.2401    0.2032   -2.2753 H       1  UNL1        0.0468
     42 H           0.2921    1.9863   -0.5698 H       1  UNL1        0.0343
     43 H           0.8138    1.0952   -2.0215 H       1  UNL1        0.0343
@<TRIPOS>BOND
     1     1     2    2
     2     2     3    1
     3     2     4    1
     4     4     5    1
     5     5     6   ar
     6     6     7   ar
     7     7     8   ar
     8     8     9   ar
     9     9    10   ar
    10    10    11   ar
    11    11    12   ar
    12    12    13   ar
    13     7    14    1
    14    14    15    1
    15    15    16   am
    16    16    17    2
    17    16    18    1
    18    18    19   ar
    19    19    20   ar
    20    20    21   ar
    21    21    22   ar
    22    22    23    1
    23    22    24   ar
    24    15    25    1
    25    25    26    1
    26    13     5   ar
    27    24    18   ar
    28    26     6    1
    29    13     8   ar
    30     3    27    1
    31     4    28    1
    32     4    29    1
    33     9    30    1
    34    10    31    1
    35    11    32    1
    36    12    33    1
    37    14    34    1
    38    14    35    1
    39    19    36    1
    40    20    37    1
    41    21    38    1
    42    24    39    1
    43    25    40    1
    44    25    41    1
    45    26    42    1
    46    26    43    1
