@<TRIPOS>MOLECULE
*****
 35 35 0 0 0
SMALL
GASTEIGER

@<TRIPOS>ATOM
      1 C           0.4000    3.5435   -0.0972 C.3     1  UNL1       -0.0528
      2 C           1.1253    2.2215   -0.0085 C.3     1  UNL1        0.0108
      3 S           2.1497    2.0408   -1.4631 S.3     1  UNL1       -0.1744
      4 C           0.1692    1.1100    0.2488 C.3     1  UNL1        0.0508
      5 C          -0.8768    0.9594   -0.8325 C.3     1  UNL1       -0.0156
      6 C          -1.7950   -0.1625   -0.5119 C.ar    1  UNL1       -0.0466
      7 C          -2.9520    0.0454    0.2413 C.ar    1  UNL1       -0.0586
      8 C          -3.8288   -0.9670    0.5579 C.ar    1  UNL1       -0.0615
      9 C          -3.5838   -2.2451    0.1302 C.ar    1  UNL1       -0.0617
     10 C          -2.4502   -2.4893   -0.6166 C.ar    1  UNL1       -0.0615
     11 C          -1.5828   -1.4615   -0.9241 C.ar    1  UNL1       -0.0586
     12 C           0.8023   -0.1681    0.5539 C.2     1  UNL1        0.2179
     13 O           0.6147   -0.7608    1.6724 O.2     1  UNL1       -0.2755
     14 N           1.6719   -0.8727   -0.3358 N.am    1  UNL1       -0.3046
     15 C           2.2709   -2.1367    0.0265 C.3     1  UNL1        0.1088
     16 C           3.1197   -1.9831    1.2358 C.2     1  UNL1        0.3221
     17 O           3.7434   -2.9287    1.7569 O.2     1  UNL1       -0.2492
     18 O           3.2369   -0.7400    1.8269 O.3     1  UNL1       -0.4795
     19 H           1.1101    4.3360    0.2169 H       1  UNL1        0.0240
     20 H          -0.5293    3.5186    0.4899 H       1  UNL1        0.0240
     21 H           0.2122    3.7318   -1.1865 H       1  UNL1        0.0240
     22 H           1.7987    2.2936    0.8779 H       1  UNL1        0.0414
     23 H           2.5003    3.2861   -2.0252 H       1  UNL1        0.1019
     24 H          -0.4138    1.4178    1.1699 H       1  UNL1        0.0408
     25 H          -0.4066    0.8230   -1.8426 H       1  UNL1        0.0321
     26 H          -1.5009    1.8825   -0.8980 H       1  UNL1        0.0321
     27 H          -3.1765    1.0383    0.5944 H       1  UNL1        0.0620
     28 H          -4.7236   -0.7582    1.1508 H       1  UNL1        0.0618
     29 H          -4.2866   -3.0426    0.3870 H       1  UNL1        0.0618
     30 H          -2.2899   -3.5109   -0.9367 H       1  UNL1        0.0618
     31 H          -0.7234   -1.7030   -1.5040 H       1  UNL1        0.0620
     32 H           1.8812   -0.4640   -1.2804 H       1  UNL1        0.1493
     33 H           1.4407   -2.8661    0.2341 H       1  UNL1        0.0577
     34 H           2.8607   -2.5303   -0.8202 H       1  UNL1        0.0577
     35 H           4.0126   -0.4577    2.4110 H       1  UNL1        0.2951
@<TRIPOS>BOND
     1     1     2    1
     2     2     3    1
     3     2     4    1
     4     4     5    1
     5     5     6    1
     6     6     7   ar
     7     7     8   ar
     8     8     9   ar
     9     9    10   ar
    10    10    11   ar
    11     4    12    1
    12    12    13    2
    13    12    14   am
    14    14    15    1
    15    15    16    1
    16    16    17    2
    17    16    18    1
    18    11     6   ar
    19     1    19    1
    20     1    20    1
    21     1    21    1
    22     2    22    1
    23     3    23    1
    24     4    24    1
    25     5    25    1
    26     5    26    1
    27     7    27    1
    28     8    28    1
    29     9    29    1
    30    10    30    1
    31    11    31    1
    32    14    32    1
    33    15    33    1
    34    15    34    1
    35    18    35    1
