
     RDKit          3D

 35 35  0  0  0  0  0  0  0  0999 V2000
    0.4000    3.5435   -0.0972 C   0  0  0  0  0  0  0  0  0  0  0  0
    1.1253    2.2215   -0.0085 C   0  0  0  0  0  0  0  0  0  0  0  0
    2.1497    2.0408   -1.4631 S   0  0  0  0  0  0  0  0  0  0  0  0
    0.1692    1.1100    0.2488 C   0  0  0  0  0  0  0  0  0  0  0  0
   -0.8768    0.9594   -0.8325 C   0  0  0  0  0  0  0  0  0  0  0  0
   -1.7950   -0.1625   -0.5119 C   0  0  0  0  0  0  0  0  0  0  0  0
   -2.9520    0.0454    0.2413 C   0  0  0  0  0  0  0  0  0  0  0  0
   -3.8288   -0.9670    0.5579 C   0  0  0  0  0  0  0  0  0  0  0  0
   -3.5838   -2.2451    0.1302 C   0  0  0  0  0  0  0  0  0  0  0  0
   -2.4502   -2.4893   -0.6166 C   0  0  0  0  0  0  0  0  0  0  0  0
   -1.5828   -1.4615   -0.9241 C   0  0  0  0  0  0  0  0  0  0  0  0
    0.8023   -0.1681    0.5539 C   0  0  0  0  0  0  0  0  0  0  0  0
    0.6147   -0.7608    1.6724 O   0  0  0  0  0  0  0  0  0  0  0  0
    1.6719   -0.8727   -0.3358 N   0  0  0  0  0  0  0  0  0  0  0  0
    2.2709   -2.1367    0.0265 C   0  0  0  0  0  0  0  0  0  0  0  0
    3.1197   -1.9831    1.2358 C   0  0  0  0  0  0  0  0  0  0  0  0
    3.7434   -2.9287    1.7569 O   0  0  0  0  0  0  0  0  0  0  0  0
    3.2369   -0.7400    1.8269 O   0  0  0  0  0  0  0  0  0  0  0  0
    1.1101    4.3360    0.2169 H   0  0  0  0  0  0  0  0  0  0  0  0
   -0.5293    3.5186    0.4899 H   0  0  0  0  0  0  0  0  0  0  0  0
    0.2122    3.7318   -1.1865 H   0  0  0  0  0  0  0  0  0  0  0  0
    1.7987    2.2936    0.8779 H   0  0  0  0  0  0  0  0  0  0  0  0
    2.5003    3.2861   -2.0252 H   0  0  0  0  0  0  0  0  0  0  0  0
   -0.4138    1.4178    1.1699 H   0  0  0  0  0  0  0  0  0  0  0  0
   -0.4066    0.8230   -1.8426 H   0  0  0  0  0  0  0  0  0  0  0  0
   -1.5009    1.8825   -0.8980 H   0  0  0  0  0  0  0  0  0  0  0  0
   -3.1765    1.0383    0.5944 H   0  0  0  0  0  0  0  0  0  0  0  0
   -4.7236   -0.7582    1.1508 H   0  0  0  0  0  0  0  0  0  0  0  0
   -4.2866   -3.0426    0.3870 H   0  0  0  0  0  0  0  0  0  0  0  0
   -2.2899   -3.5109   -0.9367 H   0  0  0  0  0  0  0  0  0  0  0  0
   -0.7234   -1.7030   -1.5040 H   0  0  0  0  0  0  0  0  0  0  0  0
    1.8812   -0.4640   -1.2804 H   0  0  0  0  0  0  0  0  0  0  0  0
    1.4407   -2.8661    0.2341 H   0  0  0  0  0  0  0  0  0  0  0  0
    2.8607   -2.5303   -0.8202 H   0  0  0  0  0  0  0  0  0  0  0  0
    4.0126   -0.4577    2.4110 H   0  0  0  0  0  0  0  0  0  0  0  0
  1  2  1  0
  2  3  1  0
  2  4  1  0
  4  5  1  0
  5  6  1  0
  6  7  2  0
  7  8  1  0
  8  9  2  0
  9 10  1  0
 10 11  2  0
  4 12  1  0
 12 13  2  0
 12 14  1  0
 14 15  1  0
 15 16  1  0
 16 17  2  0
 16 18  1  0
 11  6  1  0
  1 19  1  0
  1 20  1  0
  1 21  1  0
  2 22  1  0
  3 23  1  0
  4 24  1  0
  5 25  1  0
  5 26  1  0
  7 27  1  0
  8 28  1  0
  9 29  1  0
 10 30  1  0
 11 31  1  0
 14 32  1  0
 15 33  1  0
 15 34  1  0
 18 35  1  0
M  END
$$$$
