
     RDKit          3D

 56 60  0  0  0  0  0  0  0  0999 V2000
   -1.8419    4.5720   -1.8517 C   0  0  0  0  0  0  0  0  0  0  0  0
   -2.9080    4.2596   -0.9688 O   0  0  0  0  0  0  0  0  0  0  0  0
   -3.2019    2.9893   -0.5602 C   0  0  0  0  0  0  0  0  0  0  0  0
   -4.2490    2.7656    0.3033 C   0  0  0  0  0  0  0  0  0  0  0  0
   -4.5595    1.5015    0.7212 C   0  0  0  0  0  0  0  0  0  0  0  0
   -3.8350    0.4024    0.2927 C   0  0  0  0  0  0  0  0  0  0  0  0
   -4.1992   -0.9027    0.7447 N   0  0  0  0  0  0  0  0  0  0  0  0
   -5.4346   -1.3128    1.0702 N   0  0  0  0  0  0  0  0  0  0  0  0
   -5.3754   -2.5977    1.4444 C   0  0  0  0  0  0  0  0  0  0  0  0
   -4.0373   -3.0094    1.3480 C   0  0  0  0  0  0  0  0  0  0  0  0
   -3.3855   -1.9159    0.9138 N   0  0  0  0  0  0  0  0  0  0  0  0
   -2.7829    0.6115   -0.5721 C   0  0  0  0  0  0  0  0  0  0  0  0
   -1.9945   -0.4853   -1.0814 C   0  0  0  0  0  0  0  0  0  0  0  0
   -2.3967   -1.0036   -2.1809 O   0  0  0  0  0  0  0  0  0  0  0  0
   -0.8163   -1.0157   -0.4413 N   0  0  0  0  0  0  0  0  0  0  0  0
   -0.1810   -2.1153   -1.1097 C   0  0  0  0  0  0  0  0  0  0  0  0
    0.2597   -3.1259   -0.0592 C   0  0  0  0  0  0  0  0  0  0  0  0
    1.0415   -2.4778    0.8966 O   0  0  0  0  0  0  0  0  0  0  0  0
    0.3283   -1.5572    1.6125 C   0  0  0  0  0  0  0  0  0  0  0  0
   -0.3191   -0.4884    0.7843 C   0  0  1  0  0  0  0  0  0  0  0  0
    0.5815    0.6967    0.7138 C   0  0  0  0  0  0  0  0  0  0  0  0
    1.8259    0.5400   -0.0480 C   0  0  0  0  0  0  0  0  0  0  0  0
    3.0343    0.2765    0.5734 C   0  0  0  0  0  0  0  0  0  0  0  0
    4.2091    0.1191   -0.1040 C   0  0  0  0  0  0  0  0  0  0  0  0
    5.4659   -0.1531    0.5276 N   0  0  0  0  0  0  0  0  0  0  0  0
    5.7875    0.4212    1.7053 N   0  0  0  0  0  0  0  0  0  0  0  0
    7.0354   -0.0171    2.0640 C   0  0  0  0  0  0  0  0  0  0  0  0
    7.4276   -0.8629    1.0592 C   0  0  0  0  0  0  0  0  0  0  0  0
    6.4430   -0.9148    0.1486 N   0  0  0  0  0  0  0  0  0  0  0  0
    4.2002    0.2282   -1.4960 C   0  0  0  0  0  0  0  0  0  0  0  0
    3.0089    0.4899   -2.1356 C   0  0  0  0  0  0  0  0  0  0  0  0
    1.8329    0.6442   -1.4182 C   0  0  0  0  0  0  0  0  0  0  0  0
    0.7105    0.9000   -2.1405 F   0  0  0  0  0  0  0  0  0  0  0  0
   -2.4893    1.8936   -0.9787 C   0  0  0  0  0  0  0  0  0  0  0  0
   -1.9428    5.6142   -2.2049 H   0  0  0  0  0  0  0  0  0  0  0  0
   -1.9014    3.8968   -2.7390 H   0  0  0  0  0  0  0  0  0  0  0  0
   -0.8877    4.4237   -1.3282 H   0  0  0  0  0  0  0  0  0  0  0  0
   -4.8579    3.5928    0.6743 H   0  0  0  0  0  0  0  0  0  0  0  0
   -5.3955    1.3300    1.4095 H   0  0  0  0  0  0  0  0  0  0  0  0
   -6.1643   -3.2761    1.7764 H   0  0  0  0  0  0  0  0  0  0  0  0
   -3.6787   -4.0015    1.5862 H   0  0  0  0  0  0  0  0  0  0  0  0
    0.6663   -1.8762   -1.7462 H   0  0  0  0  0  0  0  0  0  0  0  0
   -0.9340   -2.6017   -1.7887 H   0  0  0  0  0  0  0  0  0  0  0  0
    0.8348   -3.9042   -0.5773 H   0  0  0  0  0  0  0  0  0  0  0  0
   -0.6153   -3.5992    0.4104 H   0  0  0  0  0  0  0  0  0  0  0  0
    1.0589   -1.0806    2.3318 H   0  0  0  0  0  0  0  0  0  0  0  0
   -0.4177   -2.0510    2.3006 H   0  0  0  0  0  0  0  0  0  0  0  0
   -1.2635   -0.1838    1.3619 H   0  0  0  0  0  0  0  0  0  0  0  0
    0.0187    1.6221    0.3991 H   0  0  0  0  0  0  0  0  0  0  0  0
    0.8486    0.9335    1.7935 H   0  0  0  0  0  0  0  0  0  0  0  0
    3.0478    0.1915    1.6510 H   0  0  0  0  0  0  0  0  0  0  0  0
    7.5683    0.2700    2.9674 H   0  0  0  0  0  0  0  0  0  0  0  0
    8.3670   -1.3982    1.0054 H   0  0  0  0  0  0  0  0  0  0  0  0
    5.1339    0.1021   -2.0193 H   0  0  0  0  0  0  0  0  0  0  0  0
    2.9890    0.5782   -3.2223 H   0  0  0  0  0  0  0  0  0  0  0  0
   -1.6599    2.0618   -1.6611 H   0  0  0  0  0  0  0  0  0  0  0  0
  1  2  1  0
  2  3  1  0
  3  4  2  0
  4  5  1  0
  5  6  2  0
  6  7  1  0
  7  8  1  0
  8  9  2  0
  9 10  1  0
 10 11  2  0
  6 12  1  0
 12 13  1  0
 13 14  2  0
 13 15  1  0
 15 16  1  0
 16 17  1  0
 17 18  1  0
 18 19  1  0
 19 20  1  0
 20 21  1  0
 21 22  1  0
 22 23  2  0
 23 24  1  0
 24 25  1  0
 25 26  1  0
 26 27  2  0
 27 28  1  0
 28 29  2  0
 24 30  2  0
 30 31  1  0
 31 32  2  0
 32 33  1  0
 12 34  2  0
 34  3  1  0
 11  7  1  0
 20 15  1  0
 32 22  1  0
 29 25  1  0
  1 35  1  0
  1 36  1  0
  1 37  1  0
  4 38  1  0
  5 39  1  0
  9 40  1  0
 10 41  1  0
 16 42  1  0
 16 43  1  0
 17 44  1  0
 17 45  1  0
 19 46  1  0
 19 47  1  0
 20 48  1  1
 21 49  1  0
 21 50  1  0
 23 51  1  0
 27 52  1  0
 28 53  1  0
 30 54  1  0
 31 55  1  0
 34 56  1  0
M  END
$$$$
