@<TRIPOS>MOLECULE
*****
 56 60 0 0 0
SMALL
GASTEIGER

@<TRIPOS>ATOM
      1 C          -1.8419    4.5720   -1.8517 C.3     1  UNL1        0.0788
      2 O          -2.9080    4.2596   -0.9688 O.3     1  UNL1       -0.4951
      3 C          -3.2019    2.9893   -0.5602 C.ar    1  UNL1        0.1209
      4 C          -4.2490    2.7656    0.3033 C.ar    1  UNL1       -0.0179
      5 C          -4.5595    1.5015    0.7212 C.ar    1  UNL1       -0.0303
      6 C          -3.8350    0.4024    0.2927 C.ar    1  UNL1        0.0984
      7 N          -4.1992   -0.9027    0.7447 N.ar    1  UNL1       -0.1496
      8 N          -5.4346   -1.3128    1.0702 N.ar    1  UNL1       -0.1556
      9 C          -5.3754   -2.5977    1.4444 C.ar    1  UNL1        0.0697
     10 C          -4.0373   -3.0094    1.3480 C.ar    1  UNL1        0.0697
     11 N          -3.3855   -1.9159    0.9138 N.ar    1  UNL1       -0.1556
     12 C          -2.7829    0.6115   -0.5721 C.ar    1  UNL1        0.0674
     13 C          -1.9945   -0.4853   -1.0814 C.2     1  UNL1        0.2492
     14 O          -2.3967   -1.0036   -2.1809 O.2     1  UNL1       -0.2699
     15 N          -0.8163   -1.0157   -0.4413 N.am    1  UNL1       -0.2897
     16 C          -0.1810   -2.1153   -1.1097 C.3     1  UNL1        0.0388
     17 C           0.2597   -3.1259   -0.0592 C.3     1  UNL1        0.0635
     18 O           1.0415   -2.4778    0.8966 O.3     1  UNL1       -0.3764
     19 C           0.3283   -1.5572    1.6125 C.3     1  UNL1        0.0666
     20 C          -0.3191   -0.4884    0.7843 C.3     1  UNL1        0.0537
     21 C           0.5815    0.6967    0.7138 C.3     1  UNL1       -0.0040
     22 C           1.8259    0.5400   -0.0480 C.ar    1  UNL1       -0.0083
     23 C           3.0343    0.2765    0.5734 C.ar    1  UNL1       -0.0286
     24 C           4.2091    0.1191   -0.1040 C.ar    1  UNL1        0.0866
     25 N           5.4659   -0.1531    0.5276 N.ar    1  UNL1       -0.1503
     26 N           5.7875    0.4212    1.7053 N.ar    1  UNL1       -0.1556
     27 C           7.0354   -0.0171    2.0640 C.ar    1  UNL1        0.0697
     28 C           7.4276   -0.8629    1.0592 C.ar    1  UNL1        0.0697
     29 N           6.4430   -0.9148    0.1486 N.ar    1  UNL1       -0.1556
     30 C           4.2002    0.2282   -1.4960 C.ar    1  UNL1       -0.0318
     31 C           3.0089    0.4899   -2.1356 C.ar    1  UNL1       -0.0241
     32 C           1.8329    0.6442   -1.4182 C.ar    1  UNL1        0.1267
     33 F           0.7105    0.9000   -2.1405 F       1  UNL1       -0.2052
     34 C          -2.4893    1.8936   -0.9787 C.ar    1  UNL1       -0.0057
     35 H          -1.9428    5.6142   -2.2049 H       1  UNL1        0.0660
     36 H          -1.9014    3.8968   -2.7390 H       1  UNL1        0.0660
     37 H          -0.8877    4.4237   -1.3282 H       1  UNL1        0.0660
     38 H          -4.8579    3.5928    0.6743 H       1  UNL1        0.0655
     39 H          -5.3955    1.3300    1.4095 H       1  UNL1        0.0641
     40 H          -6.1643   -3.2761    1.7764 H       1  UNL1        0.0864
     41 H          -3.6787   -4.0015    1.5862 H       1  UNL1        0.0864
     42 H           0.6663   -1.8762   -1.7462 H       1  UNL1        0.0487
     43 H          -0.9340   -2.6017   -1.7887 H       1  UNL1        0.0487
     44 H           0.8348   -3.9042   -0.5773 H       1  UNL1        0.0575
     45 H          -0.6153   -3.5992    0.4104 H       1  UNL1        0.0575
     46 H           1.0589   -1.0806    2.3318 H       1  UNL1        0.0578
     47 H          -0.4177   -2.0510    2.3006 H       1  UNL1        0.0578
     48 H          -1.2635   -0.1838    1.3619 H       1  UNL1        0.0526
     49 H           0.0187    1.6221    0.3991 H       1  UNL1        0.0333
     50 H           0.8486    0.9335    1.7935 H       1  UNL1        0.0333
     51 H           3.0478    0.1915    1.6510 H       1  UNL1        0.0643
     52 H           7.5683    0.2700    2.9674 H       1  UNL1        0.0864
     53 H           8.3670   -1.3982    1.0054 H       1  UNL1        0.0864
     54 H           5.1339    0.1021   -2.0193 H       1  UNL1        0.0640
     55 H           2.9890    0.5782   -3.2223 H       1  UNL1        0.0647
     56 H          -1.6599    2.0618   -1.6611 H       1  UNL1        0.0662
@<TRIPOS>BOND
     1     1     2    1
     2     2     3    1
     3     3     4   ar
     4     4     5   ar
     5     5     6   ar
     6     6     7    1
     7     7     8   ar
     8     8     9   ar
     9     9    10   ar
    10    10    11   ar
    11     6    12   ar
    12    12    13    1
    13    13    14    2
    14    13    15   am
    15    15    16    1
    16    16    17    1
    17    17    18    1
    18    18    19    1
    19    19    20    1
    20    20    21    1
    21    21    22    1
    22    22    23   ar
    23    23    24   ar
    24    24    25    1
    25    25    26   ar
    26    26    27   ar
    27    27    28   ar
    28    28    29   ar
    29    24    30   ar
    30    30    31   ar
    31    31    32   ar
    32    32    33    1
    33    12    34   ar
    34    34     3   ar
    35    11     7   ar
    36    20    15    1
    37    32    22   ar
    38    29    25   ar
    39     1    35    1
    40     1    36    1
    41     1    37    1
    42     4    38    1
    43     5    39    1
    44     9    40    1
    45    10    41    1
    46    16    42    1
    47    16    43    1
    48    17    44    1
    49    17    45    1
    50    19    46    1
    51    19    47    1
    52    20    48    1
    53    21    49    1
    54    21    50    1
    55    23    51    1
    56    27    52    1
    57    28    53    1
    58    30    54    1
    59    31    55    1
    60    34    56    1
