@<TRIPOS>MOLECULE
*****
 55 59 0 0 0
SMALL
GASTEIGER

@<TRIPOS>ATOM
      1 O           4.7019   -1.8362   -1.1149 O.2     1  UNL1       -0.2265
      2 C           4.0506   -1.5851   -0.0821 C.2     1  UNL1        0.4009
      3 N           4.7155   -1.4597    1.1546 N.am    1  UNL1       -0.2770
      4 C           6.1325   -1.5950    1.3682 C.3     1  UNL1        0.0400
      5 C           6.8603   -0.3849    0.9228 C.ar    1  UNL1       -0.0302
      6 C           7.0121    0.6588    1.8444 C.ar    1  UNL1       -0.0571
      7 C           7.6847    1.8262    1.5131 C.ar    1  UNL1       -0.0615
      8 C           8.2192    1.9783    0.2601 C.ar    1  UNL1       -0.0617
      9 C           8.0654    0.9438   -0.6432 C.ar    1  UNL1       -0.0615
     10 C           7.3983   -0.2242   -0.3276 C.ar    1  UNL1       -0.0571
     11 O           2.6938   -1.4370   -0.1802 O.3     1  UNL1       -0.4421
     12 C           1.9394   -1.5415   -1.3543 C.3     1  UNL1        0.1563
     13 C           0.7311   -2.4336   -1.1739 C.3     1  UNL1        0.0879
     14 O          -0.2141   -1.7000   -0.4859 O.3     1  UNL1       -0.3664
     15 C           0.0846   -0.3682   -0.5771 C.3     1  UNL1        0.1274
     16 C          -0.9990    0.4249   -1.2982 C.3     1  UNL1        0.1550
     17 O          -2.2816    0.0224   -0.9367 O.3     1  UNL1       -0.4528
     18 C          -3.1574    0.9663   -0.4278 C.2     1  UNL1        0.3396
     19 O          -2.7601    2.1519   -0.3127 O.2     1  UNL1       -0.2449
     20 C          -4.5229    0.6297   -0.0221 C.ar    1  UNL1        0.0596
     21 C          -5.0122   -0.6547   -0.1235 C.ar    1  UNL1       -0.0472
     22 C          -6.3068   -0.9608    0.2638 C.ar    1  UNL1       -0.0533
     23 C          -7.1583    0.0018    0.7649 C.ar    1  UNL1       -0.0178
     24 C          -8.4550   -0.2960    1.1541 C.ar    1  UNL1       -0.0540
     25 C          -9.3044    0.6681    1.6548 C.ar    1  UNL1       -0.0612
     26 C          -8.8129    1.9523    1.7557 C.ar    1  UNL1       -0.0612
     27 C          -7.5191    2.2537    1.3681 C.ar    1  UNL1       -0.0540
     28 C          -6.6719    1.2881    0.8678 C.ar    1  UNL1       -0.0171
     29 C          -5.3668    1.5973    0.4776 C.ar    1  UNL1       -0.0400
     30 C          -0.6618    0.1157   -2.7388 C.3     1  UNL1        0.0879
     31 O           0.6803   -0.1257   -2.8129 O.3     1  UNL1       -0.3664
     32 C           1.2251   -0.1969   -1.5602 C.3     1  UNL1        0.1274
     33 H           4.1125   -1.2469    1.9985 H       1  UNL1        0.1523
     34 H           6.3514   -1.8567    2.4238 H       1  UNL1        0.0513
     35 H           6.4946   -2.4539    0.7637 H       1  UNL1        0.0513
     36 H           6.5831    0.5144    2.8220 H       1  UNL1        0.0621
     37 H           7.7743    2.6055    2.2644 H       1  UNL1        0.0618
     38 H           8.7367    2.8866    0.0164 H       1  UNL1        0.0618
     39 H           8.4769    1.0386   -1.6358 H       1  UNL1        0.0618
     40 H           7.2925   -1.0225   -1.0446 H       1  UNL1        0.0621
     41 H           2.5037   -1.7581   -2.2587 H       1  UNL1        0.0785
     42 H           0.3191   -2.6031   -2.1992 H       1  UNL1        0.0598
     43 H           0.9524   -3.4093   -0.7458 H       1  UNL1        0.0598
     44 H           0.3541    0.0937    0.3876 H       1  UNL1        0.0661
     45 H          -0.7851    1.4968   -1.1425 H       1  UNL1        0.0785
     46 H          -4.3466   -1.4195   -0.5188 H       1  UNL1        0.0626
     47 H          -6.6597   -1.9748    0.1723 H       1  UNL1        0.0624
     48 H          -8.8274   -1.3038    1.0698 H       1  UNL1        0.0624
     49 H         -10.3142    0.3967    1.9498 H       1  UNL1        0.0618
     50 H          -9.4897    2.7001    2.1502 H       1  UNL1        0.0618
     51 H          -7.1691    3.2785    1.4633 H       1  UNL1        0.0624
     52 H          -5.0250    2.6069    0.5723 H       1  UNL1        0.0632
     53 H          -1.2169   -0.8265   -2.9968 H       1  UNL1        0.0598
     54 H          -0.9904    0.9250   -3.4156 H       1  UNL1        0.0598
     55 H           1.8823    0.6525   -1.2943 H       1  UNL1        0.0661
@<TRIPOS>BOND
     1     1     2    2
     2     2     3   am
     3     3     4    1
     4     4     5    1
     5     5     6   ar
     6     6     7   ar
     7     7     8   ar
     8     8     9   ar
     9     9    10   ar
    10     2    11    1
    11    11    12    1
    12    12    13    1
    13    13    14    1
    14    14    15    1
    15    15    16    1
    16    16    17    1
    17    17    18    1
    18    18    19    2
    19    18    20    1
    20    20    21   ar
    21    21    22   ar
    22    22    23   ar
    23    23    24   ar
    24    24    25   ar
    25    25    26   ar
    26    26    27   ar
    27    27    28   ar
    28    28    29   ar
    29    16    30    1
    30    30    31    1
    31    31    32    1
    32    10     5   ar
    33    32    12    1
    34    32    15    1
    35    29    20   ar
    36    28    23   ar
    37     3    33    1
    38     4    34    1
    39     4    35    1
    40     6    36    1
    41     7    37    1
    42     8    38    1
    43     9    39    1
    44    10    40    1
    45    12    41    1
    46    13    42    1
    47    13    43    1
    48    15    44    1
    49    16    45    1
    50    21    46    1
    51    22    47    1
    52    24    48    1
    53    25    49    1
    54    26    50    1
    55    27    51    1
    56    29    52    1
    57    30    53    1
    58    30    54    1
    59    32    55    1
