
     RDKit          3D

 55 59  0  0  0  0  0  0  0  0999 V2000
    4.7019   -1.8362   -1.1149 O   0  0  0  0  0  0  0  0  0  0  0  0
    4.0506   -1.5851   -0.0821 C   0  0  0  0  0  0  0  0  0  0  0  0
    4.7155   -1.4597    1.1546 N   0  0  0  0  0  0  0  0  0  0  0  0
    6.1325   -1.5950    1.3682 C   0  0  0  0  0  0  0  0  0  0  0  0
    6.8603   -0.3849    0.9228 C   0  0  0  0  0  0  0  0  0  0  0  0
    7.0121    0.6588    1.8444 C   0  0  0  0  0  0  0  0  0  0  0  0
    7.6847    1.8262    1.5131 C   0  0  0  0  0  0  0  0  0  0  0  0
    8.2192    1.9783    0.2601 C   0  0  0  0  0  0  0  0  0  0  0  0
    8.0654    0.9438   -0.6432 C   0  0  0  0  0  0  0  0  0  0  0  0
    7.3983   -0.2242   -0.3276 C   0  0  0  0  0  0  0  0  0  0  0  0
    2.6938   -1.4370   -0.1802 O   0  0  0  0  0  0  0  0  0  0  0  0
    1.9394   -1.5415   -1.3543 C   0  0  1  0  0  0  0  0  0  0  0  0
    0.7311   -2.4336   -1.1739 C   0  0  0  0  0  0  0  0  0  0  0  0
   -0.2141   -1.7000   -0.4859 O   0  0  0  0  0  0  0  0  0  0  0  0
    0.0846   -0.3682   -0.5771 C   0  0  2  0  0  0  0  0  0  0  0  0
   -0.9990    0.4249   -1.2982 C   0  0  2  0  0  0  0  0  0  0  0  0
   -2.2816    0.0224   -0.9367 O   0  0  0  0  0  0  0  0  0  0  0  0
   -3.1574    0.9663   -0.4278 C   0  0  0  0  0  0  0  0  0  0  0  0
   -2.7601    2.1519   -0.3127 O   0  0  0  0  0  0  0  0  0  0  0  0
   -4.5229    0.6297   -0.0221 C   0  0  0  0  0  0  0  0  0  0  0  0
   -5.0122   -0.6547   -0.1235 C   0  0  0  0  0  0  0  0  0  0  0  0
   -6.3068   -0.9608    0.2638 C   0  0  0  0  0  0  0  0  0  0  0  0
   -7.1583    0.0018    0.7649 C   0  0  0  0  0  0  0  0  0  0  0  0
   -8.4550   -0.2960    1.1541 C   0  0  0  0  0  0  0  0  0  0  0  0
   -9.3044    0.6681    1.6548 C   0  0  0  0  0  0  0  0  0  0  0  0
   -8.8129    1.9523    1.7557 C   0  0  0  0  0  0  0  0  0  0  0  0
   -7.5191    2.2537    1.3681 C   0  0  0  0  0  0  0  0  0  0  0  0
   -6.6719    1.2881    0.8678 C   0  0  0  0  0  0  0  0  0  0  0  0
   -5.3668    1.5973    0.4776 C   0  0  0  0  0  0  0  0  0  0  0  0
   -0.6618    0.1157   -2.7388 C   0  0  0  0  0  0  0  0  0  0  0  0
    0.6803   -0.1257   -2.8129 O   0  0  0  0  0  0  0  0  0  0  0  0
    1.2251   -0.1969   -1.5602 C   0  0  2  0  0  0  0  0  0  0  0  0
    4.1125   -1.2469    1.9985 H   0  0  0  0  0  0  0  0  0  0  0  0
    6.3514   -1.8567    2.4238 H   0  0  0  0  0  0  0  0  0  0  0  0
    6.4946   -2.4539    0.7637 H   0  0  0  0  0  0  0  0  0  0  0  0
    6.5831    0.5144    2.8220 H   0  0  0  0  0  0  0  0  0  0  0  0
    7.7743    2.6055    2.2644 H   0  0  0  0  0  0  0  0  0  0  0  0
    8.7367    2.8866    0.0164 H   0  0  0  0  0  0  0  0  0  0  0  0
    8.4769    1.0386   -1.6358 H   0  0  0  0  0  0  0  0  0  0  0  0
    7.2925   -1.0225   -1.0446 H   0  0  0  0  0  0  0  0  0  0  0  0
    2.5037   -1.7581   -2.2587 H   0  0  0  0  0  0  0  0  0  0  0  0
    0.3191   -2.6031   -2.1992 H   0  0  0  0  0  0  0  0  0  0  0  0
    0.9524   -3.4093   -0.7458 H   0  0  0  0  0  0  0  0  0  0  0  0
    0.3541    0.0937    0.3876 H   0  0  0  0  0  0  0  0  0  0  0  0
   -0.7851    1.4968   -1.1425 H   0  0  0  0  0  0  0  0  0  0  0  0
   -4.3466   -1.4195   -0.5188 H   0  0  0  0  0  0  0  0  0  0  0  0
   -6.6597   -1.9748    0.1723 H   0  0  0  0  0  0  0  0  0  0  0  0
   -8.8274   -1.3038    1.0698 H   0  0  0  0  0  0  0  0  0  0  0  0
  -10.3142    0.3967    1.9498 H   0  0  0  0  0  0  0  0  0  0  0  0
   -9.4897    2.7001    2.1502 H   0  0  0  0  0  0  0  0  0  0  0  0
   -7.1691    3.2785    1.4633 H   0  0  0  0  0  0  0  0  0  0  0  0
   -5.0250    2.6069    0.5723 H   0  0  0  0  0  0  0  0  0  0  0  0
   -1.2169   -0.8265   -2.9968 H   0  0  0  0  0  0  0  0  0  0  0  0
   -0.9904    0.9250   -3.4156 H   0  0  0  0  0  0  0  0  0  0  0  0
    1.8823    0.6525   -1.2943 H   0  0  0  0  0  0  0  0  0  0  0  0
  1  2  2  0
  2  3  1  0
  3  4  1  0
  4  5  1  0
  5  6  2  0
  6  7  1  0
  7  8  2  0
  8  9  1  0
  9 10  2  0
  2 11  1  0
 11 12  1  0
 12 13  1  0
 13 14  1  0
 14 15  1  0
 15 16  1  0
 16 17  1  0
 17 18  1  0
 18 19  2  0
 18 20  1  0
 20 21  2  0
 21 22  1  0
 22 23  2  0
 23 24  1  0
 24 25  2  0
 25 26  1  0
 26 27  2  0
 27 28  1  0
 28 29  2  0
 16 30  1  0
 30 31  1  0
 31 32  1  0
 10  5  1  0
 32 12  1  0
 32 15  1  0
 29 20  1  0
 28 23  1  0
  3 33  1  0
  4 34  1  0
  4 35  1  0
  6 36  1  0
  7 37  1  0
  8 38  1  0
  9 39  1  0
 10 40  1  0
 12 41  1  6
 13 42  1  0
 13 43  1  0
 15 44  1  1
 16 45  1  6
 21 46  1  0
 22 47  1  0
 24 48  1  0
 25 49  1  0
 26 50  1  0
 27 51  1  0
 29 52  1  0
 30 53  1  0
 30 54  1  0
 32 55  1  1
M  END
$$$$
