@<TRIPOS>MOLECULE
*****
 52 55 0 0 0
SMALL
GASTEIGER

@<TRIPOS>ATOM
      1 C           8.7599    0.7113   -0.5703 C.3     1  UNL1       -0.0382
      2 C           7.4146    0.1455   -0.2849 C.ar    1  UNL1       -0.0272
      3 C           6.3695    0.4961   -1.1139 C.ar    1  UNL1       -0.0127
      4 C           5.1287   -0.0370   -0.8398 C.ar    1  UNL1        0.1621
      5 N           3.9272    0.1155   -1.4636 N.ar    1  UNL1       -0.1485
      6 N           2.9987   -0.5920   -0.8541 N.ar    1  UNL1       -0.2079
      7 C           1.6311   -0.7899   -1.1676 C.3     1  UNL1        0.0731
      8 C           0.6495    0.0571   -0.4997 C.ar    1  UNL1       -0.0073
      9 C          -0.6868   -0.3604   -0.5904 C.ar    1  UNL1       -0.0497
     10 C          -1.7172    0.3284   -0.0108 C.ar    1  UNL1       -0.0159
     11 C          -3.1123   -0.1510   -0.1306 C.3     1  UNL1        0.1125
     12 O          -3.9594    0.9111   -0.4282 O.3     1  UNL1       -0.3612
     13 C          -5.2606    0.5418   -0.6556 C.3     1  UNL1        0.1108
     14 C          -6.0564    1.7708   -1.0314 C.3     1  UNL1        0.0729
     15 O          -5.5148    2.3214   -2.1744 O.3     1  UNL1       -0.3924
     16 C          -5.8462   -0.1419    0.5658 C.3     1  UNL1        0.1117
     17 O          -7.1700   -0.4757    0.3962 O.3     1  UNL1       -0.3865
     18 C          -4.9748   -1.3705    0.8137 C.3     1  UNL1        0.1121
     19 O          -5.4584   -2.2001    1.7921 O.3     1  UNL1       -0.3865
     20 C          -3.5975   -0.7878    1.1581 C.3     1  UNL1        0.1137
     21 O          -2.7306   -1.7459    1.6496 O.3     1  UNL1       -0.3862
     22 C          -1.3945    1.4740    0.6825 C.ar    1  UNL1       -0.0546
     23 C          -0.1068    1.9202    0.7980 C.ar    1  UNL1       -0.0427
     24 C           0.9189    1.1951    0.1960 C.ar    1  UNL1        0.0459
     25 CL          2.5488    1.8023    0.3708 Cl      1  UNL1       -0.0832
     26 C           3.6271   -1.2039    0.1787 C.ar    1  UNL1        0.3514
     27 O           3.0969   -1.9650    1.0019 O.2     1  UNL1       -0.2444
     28 N           4.9243   -0.8676    0.1894 N.ar    1  UNL1       -0.2494
     29 C           5.9355   -1.2189    1.0072 C.ar    1  UNL1        0.0347
     30 C           7.2046   -0.7090    0.7741 C.ar    1  UNL1        0.0606
     31 CL          8.5494   -1.1347    1.8078 Cl      1  UNL1       -0.0818
     32 H           9.3534    0.0022   -1.1744 H       1  UNL1        0.0278
     33 H           9.2602    0.8611    0.4041 H       1  UNL1        0.0278
     34 H           8.7043    1.6608   -1.1155 H       1  UNL1        0.0278
     35 H           6.5289    1.1720   -1.9522 H       1  UNL1        0.0658
     36 H           1.3606   -1.8838   -1.0156 H       1  UNL1        0.0561
     37 H           1.4794   -0.6586   -2.2796 H       1  UNL1        0.0561
     38 H          -0.8971   -1.2732   -1.1489 H       1  UNL1        0.0625
     39 H          -3.1619   -0.9470   -0.9059 H       1  UNL1        0.0673
     40 H          -5.3698   -0.1846   -1.5014 H       1  UNL1        0.0646
     41 H          -7.1181    1.5073   -1.2102 H       1  UNL1        0.0584
     42 H          -5.9583    2.5259   -0.2180 H       1  UNL1        0.0584
     43 H          -4.8559    3.0210   -1.9323 H       1  UNL1        0.2095
     44 H          -5.7330    0.4925    1.4619 H       1  UNL1        0.0647
     45 H          -7.3596   -1.0126   -0.3885 H       1  UNL1        0.2100
     46 H          -4.8536   -1.8517   -0.1819 H       1  UNL1        0.0647
     47 H          -5.1138   -3.1266    1.5933 H       1  UNL1        0.2100
     48 H          -3.8009    0.0440    1.8788 H       1  UNL1        0.0649
     49 H          -2.3307   -1.3592    2.4899 H       1  UNL1        0.2100
     50 H          -2.1915    2.0443    1.1555 H       1  UNL1        0.0622
     51 H           0.1704    2.8137    1.3359 H       1  UNL1        0.0632
     52 H           5.7888   -1.8867    1.8417 H       1  UNL1        0.0830
@<TRIPOS>BOND
     1     1     2    1
     2     2     3   ar
     3     3     4   ar
     4     4     5   ar
     5     5     6   ar
     6     6     7    1
     7     7     8    1
     8     8     9   ar
     9     9    10   ar
    10    10    11    1
    11    11    12    1
    12    12    13    1
    13    13    14    1
    14    14    15    1
    15    13    16    1
    16    16    17    1
    17    16    18    1
    18    18    19    1
    19    18    20    1
    20    20    21    1
    21    10    22   ar
    22    22    23   ar
    23    23    24   ar
    24    24    25    1
    25     6    26   ar
    26    26    27    2
    27    26    28   ar
    28    28    29   ar
    29    29    30   ar
    30    30    31    1
    31    30     2   ar
    32    28     4   ar
    33    24     8   ar
    34    20    11    1
    35     1    32    1
    36     1    33    1
    37     1    34    1
    38     3    35    1
    39     7    36    1
    40     7    37    1
    41     9    38    1
    42    11    39    1
    43    13    40    1
    44    14    41    1
    45    14    42    1
    46    15    43    1
    47    16    44    1
    48    17    45    1
    49    18    46    1
    50    19    47    1
    51    20    48    1
    52    21    49    1
    53    22    50    1
    54    23    51    1
    55    29    52    1
