@<TRIPOS>MOLECULE
*****
 42 45 0 0 0
SMALL
GASTEIGER

@<TRIPOS>ATOM
      1 N           6.9439    2.4402    0.4374 N.3     1  UNL1       -0.2035
      2 S           6.2563    1.6706   -0.9210 S.O2    1  UNL1        0.0560
      3 O           7.4007    1.1233   -1.7617 O.2     1  UNL1       -0.1533
      4 O           5.5425    2.6580   -1.7817 O.2     1  UNL1       -0.1533
      5 C           5.1658    0.3937   -0.5171 C.ar    1  UNL1        0.1068
      6 C           3.8385    0.5993   -0.3404 C.ar    1  UNL1       -0.0141
      7 C           2.9249   -0.3862   -0.0182 C.ar    1  UNL1        0.0354
      8 N           1.5491   -0.0885    0.1543 N.pl3   1  UNL1       -0.2835
      9 C           0.4746   -0.9818    0.4051 C.ar    1  UNL1        0.2212
     10 N          -0.7538   -0.4939    0.5634 N.ar    1  UNL1       -0.1992
     11 C          -1.8422   -1.2361    0.7979 C.ar    1  UNL1        0.1281
     12 N          -3.1312   -0.7131    0.9673 N.pl3   1  UNL1       -0.2952
     13 C          -4.3218   -0.3026    0.3485 C.ar    1  UNL1        0.0970
     14 C          -5.3897   -1.1359    0.0932 C.ar    1  UNL1        0.0659
     15 CL         -5.3209   -2.8246    0.5445 Cl      1  UNL1       -0.0815
     16 C          -6.5382   -0.6794   -0.5172 C.ar    1  UNL1       -0.0379
     17 C          -6.5554    0.6477   -0.8538 C.ar    1  UNL1       -0.0146
     18 C          -5.5203    1.5253   -0.6233 C.ar    1  UNL1        0.1682
     19 C          -4.3597    1.0523   -0.0038 C.ar    1  UNL1        0.1887
     20 O          -3.4616    2.1298    0.1181 O.3     1  UNL1       -0.4507
     21 C          -4.2254    3.3285   -0.0383 C.3     1  UNL1        0.2333
     22 O          -5.3110    2.8921   -0.8710 O.3     1  UNL1       -0.4525
     23 C          -1.6961   -2.6009    0.8840 C.ar    1  UNL1       -0.0033
     24 C          -0.4304   -3.1120    0.7215 C.ar    1  UNL1        0.0344
     25 N           0.6093   -2.3086    0.4901 N.ar    1  UNL1       -0.2225
     26 C           3.5004   -1.6262    0.1106 C.ar    1  UNL1       -0.0404
     27 C           4.8367   -1.8987   -0.0555 C.ar    1  UNL1       -0.0582
     28 C           5.6929   -0.8688   -0.3767 C.ar    1  UNL1       -0.0352
     29 H           6.5583    3.4056    0.5959 H       1  UNL1        0.1442
     30 H           6.8912    1.8325    1.2816 H       1  UNL1        0.1442
     31 H           3.5026    1.6242   -0.4702 H       1  UNL1        0.0656
     32 H           1.3123    0.9385    0.0840 H       1  UNL1        0.1550
     33 H          -3.2961   -0.5529    1.9839 H       1  UNL1        0.1537
     34 H          -7.3979   -1.2898   -0.7384 H       1  UNL1        0.0634
     35 H          -7.4076    1.0829   -1.3304 H       1  UNL1        0.0656
     36 H          -4.6842    3.5782    0.9436 H       1  UNL1        0.1166
     37 H          -3.6409    4.1382   -0.4942 H       1  UNL1        0.1166
     38 H          -2.4433   -3.3566    1.0664 H       1  UNL1        0.0667
     39 H          -0.1800   -4.1755    0.7661 H       1  UNL1        0.0832
     40 H           2.9086   -2.4770    0.3594 H       1  UNL1        0.0636
     41 H           5.2504   -2.8912    0.0557 H       1  UNL1        0.0619
     42 H           6.7487   -1.0603   -0.5116 H       1  UNL1        0.0637
@<TRIPOS>BOND
     1     1     2    1
     2     2     3    2
     3     2     4    2
     4     2     5    1
     5     5     6   ar
     6     6     7   ar
     7     7     8    1
     8     8     9    1
     9     9    10   ar
    10    10    11   ar
    11    11    12    1
    12    12    13    1
    13    13    14   ar
    14    14    15    1
    15    14    16   ar
    16    16    17   ar
    17    17    18   ar
    18    18    19   ar
    19    19    20    1
    20    20    21    1
    21    21    22    1
    22    11    23   ar
    23    23    24   ar
    24    24    25   ar
    25     7    26   ar
    26    26    27   ar
    27    27    28   ar
    28    28     5   ar
    29    25     9   ar
    30    19    13   ar
    31    22    18    1
    32     1    29    1
    33     1    30    1
    34     6    31    1
    35     8    32    1
    36    12    33    1
    37    16    34    1
    38    17    35    1
    39    21    36    1
    40    21    37    1
    41    23    38    1
    42    24    39    1
    43    26    40    1
    44    27    41    1
    45    28    42    1
