
     RDKit          3D

 54 58  0  0  0  0  0  0  0  0999 V2000
   -6.7867    1.5917   -1.9323 O   0  0  0  0  0  0  0  0  0  0  0  0
   -6.3917    0.2645   -2.0312 C   0  0  0  0  0  0  0  0  0  0  0  0
   -5.3240   -0.0081   -0.9668 C   0  0  0  0  0  0  0  0  0  0  0  0
   -4.1609    0.8892   -1.2005 C   0  0  0  0  0  0  0  0  0  0  0  0
   -2.8685    0.3696   -0.6131 C   0  0  0  0  0  0  0  0  0  0  0  0
   -3.2009   -0.6731    0.3134 N   0  0  0  0  0  0  0  0  0  0  0  0
   -2.9127   -0.5129    1.6880 C   0  0  0  0  0  0  0  0  0  0  0  0
   -3.8610   -0.5382    2.6392 N   0  0  0  0  0  0  0  0  0  0  0  0
   -3.5142   -0.3792    3.9247 C   0  0  0  0  0  0  0  0  0  0  0  0
   -2.2102   -0.1879    4.3234 C   0  0  0  0  0  0  0  0  0  0  0  0
   -1.2544   -0.1596    3.3936 N   0  0  0  0  0  0  0  0  0  0  0  0
   -1.5975   -0.3183    2.1077 C   0  0  0  0  0  0  0  0  0  0  0  0
   -0.6267   -0.2958    1.0958 O   0  0  0  0  0  0  0  0  0  0  0  0
    0.7126   -0.1008    1.4888 C   0  0  0  0  0  0  0  0  0  0  0  0
    1.5894   -1.1389    0.8208 C   0  0  0  0  0  0  0  0  0  0  0  0
    2.4977   -0.1087    0.4087 N   0  0  0  0  0  0  0  0  0  0  0  0
    3.8510   -0.1239   -0.0275 C   0  0  0  0  0  0  0  0  0  0  0  0
    4.5747   -1.2926   -0.1286 C   0  0  0  0  0  0  0  0  0  0  0  0
    5.8838   -1.2828   -0.5532 C   0  0  0  0  0  0  0  0  0  0  0  0
    6.4545   -0.0675   -0.8762 C   0  0  0  0  0  0  0  0  0  0  0  0
    7.7572   -0.0282   -1.3021 C   0  0  0  0  0  0  0  0  0  0  0  0
    8.3706    1.1612   -1.6359 C   0  0  0  0  0  0  0  0  0  0  0  0
    7.6336    2.3160   -1.5289 C   0  0  0  0  0  0  0  0  0  0  0  0
    6.3246    2.2780   -1.1011 C   0  0  0  0  0  0  0  0  0  0  0  0
    5.7076    1.0806   -0.7652 C   0  0  0  0  0  0  0  0  0  0  0  0
    4.4264    1.0403   -0.3461 N   0  0  0  0  0  0  0  0  0  0  0  0
    1.4729    0.8901    0.6255 C   0  0  0  0  0  0  0  0  0  0  0  0
   -3.8238   -1.8618   -0.1910 C   0  0  0  0  0  0  0  0  0  0  0  0
   -4.9957   -1.4796   -1.0665 C   0  0  0  0  0  0  0  0  0  0  0  0
   -6.3963    2.0901   -2.6861 H   0  0  0  0  0  0  0  0  0  0  0  0
   -7.2997   -0.3672   -1.8219 H   0  0  0  0  0  0  0  0  0  0  0  0
   -6.0378   -0.0143   -3.0431 H   0  0  0  0  0  0  0  0  0  0  0  0
   -5.8326    0.1618    0.0057 H   0  0  0  0  0  0  0  0  0  0  0  0
   -4.0130    1.1724   -2.2600 H   0  0  0  0  0  0  0  0  0  0  0  0
   -4.3808    1.8612   -0.6693 H   0  0  0  0  0  0  0  0  0  0  0  0
   -2.2900    1.1948   -0.1522 H   0  0  0  0  0  0  0  0  0  0  0  0
   -2.2067   -0.0410   -1.4152 H   0  0  0  0  0  0  0  0  0  0  0  0
   -4.2691   -0.3954    4.7252 H   0  0  0  0  0  0  0  0  0  0  0  0
   -1.9176   -0.0581    5.3605 H   0  0  0  0  0  0  0  0  0  0  0  0
    0.8582    0.0137    2.5638 H   0  0  0  0  0  0  0  0  0  0  0  0
    1.9919   -1.8861    1.5321 H   0  0  0  0  0  0  0  0  0  0  0  0
    1.1323   -1.6462   -0.0507 H   0  0  0  0  0  0  0  0  0  0  0  0
    4.0757   -2.2334    0.1399 H   0  0  0  0  0  0  0  0  0  0  0  0
    6.4116   -2.2054   -0.6190 H   0  0  0  0  0  0  0  0  0  0  0  0
    8.3646   -0.9215   -1.3970 H   0  0  0  0  0  0  0  0  0  0  0  0
    9.4071    1.2158   -1.9775 H   0  0  0  0  0  0  0  0  0  0  0  0
    8.0730    3.2772   -1.7805 H   0  0  0  0  0  0  0  0  0  0  0  0
    5.7301    3.1738   -1.0108 H   0  0  0  0  0  0  0  0  0  0  0  0
    1.8084    1.7434    1.2600 H   0  0  0  0  0  0  0  0  0  0  0  0
    0.9413    1.2337   -0.2771 H   0  0  0  0  0  0  0  0  0  0  0  0
   -4.0920   -2.5959    0.5925 H   0  0  0  0  0  0  0  0  0  0  0  0
   -3.0755   -2.3579   -0.8682 H   0  0  0  0  0  0  0  0  0  0  0  0
   -5.8869   -2.0351   -0.7503 H   0  0  0  0  0  0  0  0  0  0  0  0
   -4.8240   -1.7040   -2.1389 H   0  0  0  0  0  0  0  0  0  0  0  0
  1  2  1  0
  2  3  1  0
  3  4  1  0
  4  5  1  0
  5  6  1  0
  6  7  1  0
  7  8  2  0
  8  9  1  0
  9 10  2  0
 10 11  1  0
 11 12  2  0
 12 13  1  0
 13 14  1  0
 14 15  1  0
 15 16  1  0
 16 17  1  0
 17 18  2  0
 18 19  1  0
 19 20  2  0
 20 21  1  0
 21 22  2  0
 22 23  1  0
 23 24  2  0
 24 25  1  0
 25 26  2  0
 16 27  1  0
  6 28  1  0
 28 29  1  0
 29  3  1  0
 12  7  1  0
 27 14  1  0
 26 17  1  0
 25 20  1  0
  1 30  1  0
  2 31  1  0
  2 32  1  0
  3 33  1  0
  4 34  1  0
  4 35  1  0
  5 36  1  0
  5 37  1  0
  9 38  1  0
 10 39  1  0
 14 40  1  0
 15 41  1  0
 15 42  1  0
 18 43  1  0
 19 44  1  0
 21 45  1  0
 22 46  1  0
 23 47  1  0
 24 48  1  0
 27 49  1  0
 27 50  1  0
 28 51  1  0
 28 52  1  0
 29 53  1  0
 29 54  1  0
M  END
$$$$
