@<TRIPOS>MOLECULE
*****
 54 58 0 0 0
SMALL
GASTEIGER

@<TRIPOS>ATOM
      1 O          -6.7867    1.5917   -1.9323 O.3     1  UNL1       -0.3947
      2 C          -6.3917    0.2645   -2.0312 C.3     1  UNL1        0.0471
      3 C          -5.3240   -0.0081   -0.9668 C.3     1  UNL1       -0.0150
      4 C          -4.1609    0.8892   -1.2005 C.3     1  UNL1       -0.0322
      5 C          -2.8685    0.3696   -0.6131 C.3     1  UNL1        0.0140
      6 N          -3.2009   -0.6731    0.3134 N.pl3   1  UNL1       -0.3110
      7 C          -2.9127   -0.5129    1.6880 C.ar    1  UNL1        0.1839
      8 N          -3.8610   -0.5382    2.6392 N.ar    1  UNL1       -0.2338
      9 C          -3.5142   -0.3792    3.9247 C.ar    1  UNL1        0.0480
     10 C          -2.2102   -0.1879    4.3234 C.ar    1  UNL1        0.0496
     11 N          -1.2544   -0.1596    3.3936 N.ar    1  UNL1       -0.2169
     12 C          -1.5975   -0.3183    2.1077 C.ar    1  UNL1        0.2565
     13 O          -0.6267   -0.2958    1.0958 O.3     1  UNL1       -0.4676
     14 C           0.7126   -0.1008    1.4888 C.3     1  UNL1        0.1330
     15 C           1.5894   -1.1389    0.8208 C.3     1  UNL1        0.0522
     16 N           2.4977   -0.1087    0.4087 N.pl3   1  UNL1       -0.3080
     17 C           3.8510   -0.1239   -0.0275 C.ar    1  UNL1        0.1221
     18 C           4.5747   -1.2926   -0.1286 C.ar    1  UNL1       -0.0211
     19 C           5.8838   -1.2828   -0.5532 C.ar    1  UNL1       -0.0493
     20 C           6.4545   -0.0675   -0.8762 C.ar    1  UNL1        0.0005
     21 C           7.7572   -0.0282   -1.3021 C.ar    1  UNL1       -0.0526
     22 C           8.3706    1.1612   -1.6359 C.ar    1  UNL1       -0.0611
     23 C           7.6336    2.3160   -1.5289 C.ar    1  UNL1       -0.0597
     24 C           6.3246    2.2780   -1.1011 C.ar    1  UNL1       -0.0357
     25 C           5.7076    1.0806   -0.7652 C.ar    1  UNL1        0.0731
     26 N           4.4264    1.0403   -0.3461 N.ar    1  UNL1       -0.2320
     27 C           1.4729    0.8901    0.6255 C.3     1  UNL1        0.0522
     28 C          -3.8238   -1.8618   -0.1910 C.3     1  UNL1        0.0140
     29 C          -4.9957   -1.4796   -1.0665 C.3     1  UNL1       -0.0322
     30 H          -6.3963    2.0901   -2.6861 H       1  UNL1        0.2094
     31 H          -7.2997   -0.3672   -1.8219 H       1  UNL1        0.0560
     32 H          -6.0378   -0.0143   -3.0431 H       1  UNL1        0.0560
     33 H          -5.8326    0.1618    0.0057 H       1  UNL1        0.0324
     34 H          -4.0130    1.1724   -2.2600 H       1  UNL1        0.0284
     35 H          -4.3808    1.8612   -0.6693 H       1  UNL1        0.0284
     36 H          -2.2900    1.1948   -0.1522 H       1  UNL1        0.0464
     37 H          -2.2067   -0.0410   -1.4152 H       1  UNL1        0.0464
     38 H          -4.2691   -0.3954    4.7252 H       1  UNL1        0.0846
     39 H          -1.9176   -0.0581    5.3605 H       1  UNL1        0.0846
     40 H           0.8582    0.0137    2.5638 H       1  UNL1        0.0765
     41 H           1.9919   -1.8861    1.5321 H       1  UNL1        0.0501
     42 H           1.1323   -1.6462   -0.0507 H       1  UNL1        0.0501
     43 H           4.0757   -2.2334    0.1399 H       1  UNL1        0.0652
     44 H           6.4116   -2.2054   -0.6190 H       1  UNL1        0.0625
     45 H           8.3646   -0.9215   -1.3970 H       1  UNL1        0.0624
     46 H           9.4071    1.2158   -1.9775 H       1  UNL1        0.0618
     47 H           8.0730    3.2772   -1.7805 H       1  UNL1        0.0618
     48 H           5.7301    3.1738   -1.0108 H       1  UNL1        0.0639
     49 H           1.8084    1.7434    1.2600 H       1  UNL1        0.0501
     50 H           0.9413    1.2337   -0.2771 H       1  UNL1        0.0501
     51 H          -4.0920   -2.5959    0.5925 H       1  UNL1        0.0464
     52 H          -3.0755   -2.3579   -0.8682 H       1  UNL1        0.0464
     53 H          -5.8869   -2.0351   -0.7503 H       1  UNL1        0.0284
     54 H          -4.8240   -1.7040   -2.1389 H       1  UNL1        0.0284
@<TRIPOS>BOND
     1     1     2    1
     2     2     3    1
     3     3     4    1
     4     4     5    1
     5     5     6    1
     6     6     7    1
     7     7     8   ar
     8     8     9   ar
     9     9    10   ar
    10    10    11   ar
    11    11    12   ar
    12    12    13    1
    13    13    14    1
    14    14    15    1
    15    15    16    1
    16    16    17    1
    17    17    18   ar
    18    18    19   ar
    19    19    20   ar
    20    20    21   ar
    21    21    22   ar
    22    22    23   ar
    23    23    24   ar
    24    24    25   ar
    25    25    26   ar
    26    16    27    1
    27     6    28    1
    28    28    29    1
    29    29     3    1
    30    12     7   ar
    31    27    14    1
    32    26    17   ar
    33    25    20   ar
    34     1    30    1
    35     2    31    1
    36     2    32    1
    37     3    33    1
    38     4    34    1
    39     4    35    1
    40     5    36    1
    41     5    37    1
    42     9    38    1
    43    10    39    1
    44    14    40    1
    45    15    41    1
    46    15    42    1
    47    18    43    1
    48    19    44    1
    49    21    45    1
    50    22    46    1
    51    23    47    1
    52    24    48    1
    53    27    49    1
    54    27    50    1
    55    28    51    1
    56    28    52    1
    57    29    53    1
    58    29    54    1
