@<TRIPOS>MOLECULE
*****
 21 22 0 0 0
SMALL
GASTEIGER

@<TRIPOS>ATOM
      1 N          -3.1209    0.0247   -0.9359 N.3     1  UNL1       -0.3267
      2 C          -1.9038   -0.6017   -0.4827 C.3     1  UNL1        0.0123
      3 C          -1.7713   -1.1133    0.9030 C.3     1  UNL1       -0.0289
      4 C          -1.0904    0.1635    0.5826 C.3     1  UNL1        0.0008
      5 C           0.3372    0.2282    0.2758 C.ar    1  UNL1       -0.0428
      6 C           1.0560    1.3952    0.4334 C.ar    1  UNL1       -0.0583
      7 C           2.4108    1.4856    0.1501 C.ar    1  UNL1       -0.0615
      8 C           3.0629    0.3630   -0.3070 C.ar    1  UNL1       -0.0617
      9 C           2.3451   -0.8087   -0.4661 C.ar    1  UNL1       -0.0615
     10 C           1.0167   -0.8766   -0.1827 C.ar    1  UNL1       -0.0583
     11 H          -3.7012    0.3742   -0.1641 H       1  UNL1        0.1185
     12 H          -2.8415    0.8351   -1.5459 H       1  UNL1        0.1185
     13 H          -1.3640   -1.1539   -1.2533 H       1  UNL1        0.0464
     14 H          -2.6932   -1.0402    1.5195 H       1  UNL1        0.0287
     15 H          -1.1628   -2.0174    1.1232 H       1  UNL1        0.0287
     16 H          -1.5415    1.1131    0.9464 H       1  UNL1        0.0364
     17 H           0.5489    2.2983    0.7972 H       1  UNL1        0.0620
     18 H           2.9099    2.4227    0.2945 H       1  UNL1        0.0618
     19 H           4.1154    0.4176   -0.5313 H       1  UNL1        0.0618
     20 H           2.8741   -1.6803   -0.8262 H       1  UNL1        0.0618
     21 H           0.5135   -1.8291   -0.3304 H       1  UNL1        0.0620
@<TRIPOS>BOND
     1     1     2    1
     2     2     3    1
     3     3     4    1
     4     4     5    1
     5     5     6   ar
     6     6     7   ar
     7     7     8   ar
     8     8     9   ar
     9     9    10   ar
    10     4     2    1
    11    10     5   ar
    12     1    11    1
    13     1    12    1
    14     2    13    1
    15     3    14    1
    16     3    15    1
    17     4    16    1
    18     6    17    1
    19     7    18    1
    20     8    19    1
    21     9    20    1
    22    10    21    1
