@<TRIPOS>MOLECULE
*****
 31 33 0 0 0
SMALL
GASTEIGER

@<TRIPOS>ATOM
      1 O5*         3.7211   -0.2941    2.0954 O.3     1  UNL1       -0.3924
      2 C5*         2.3704   -0.6093    2.0308 C.3     1  UNL1        0.0730
      3 C4*         1.9949   -0.8154    0.5786 C.3     1  UNL1        0.1126
      4 O4*         0.6706   -1.1310    0.4368 O.3     1  UNL1       -0.3457
      5 C1*         0.2271   -0.7196   -0.7928 C.3     1  UNL1        0.1655
      6 N          -1.0351   -0.0151   -0.7215 N.ar    1  UNL1       -0.3021
      7 C          -1.4918    0.8526   -1.6294 C.ar    1  UNL1        0.0229
      8 C          -2.7144    1.3130   -1.2219 C.ar    1  UNL1        0.0431
      9 I          -3.9460    2.6966   -2.2131 I       1  UNL1       -0.0415
     10 C          -3.0045    0.6904   -0.0101 C.ar    1  UNL1        0.0688
     11 C          -4.0908    0.7783    0.8413 C.ar    1  UNL1        0.1426
     12 CL         -5.3864    1.8432    0.3939 Cl      1  UNL1       -0.0612
     13 N          -4.0662    0.0362    1.9498 N.ar    1  UNL1       -0.2232
     14 C          -3.0287   -0.7727    2.2414 C.ar    1  UNL1        0.1199
     15 N          -1.9721   -0.8558    1.4095 N.ar    1  UNL1       -0.2175
     16 C          -1.9252   -0.1370    0.2716 C.ar    1  UNL1        0.1484
     17 C2*         1.3105    0.0995   -1.4397 C.3     1  UNL1        0.1285
     18 O2*         2.1402   -0.7247   -2.2257 O.3     1  UNL1       -0.3847
     19 C3*         2.1458    0.4721   -0.2069 C.3     1  UNL1        0.1135
     20 O3*         3.4495    0.7577   -0.5370 O.3     1  UNL1       -0.3864
     21 H5*         4.1898   -0.9431    1.5064 H       1  UNL1        0.2095
     22 H5*1        2.2292   -1.5904    2.5385 H       1  UNL1        0.0584
     23 H5*2        1.7159    0.1669    2.4388 H       1  UNL1        0.0584
     24 H4*         2.6356   -1.6030    0.1029 H       1  UNL1        0.0647
     25 H1*         0.1132   -1.6461   -1.4253 H       1  UNL1        0.0866
     26 H          -0.9931    1.1482   -2.5324 H       1  UNL1        0.0821
     27 H          -3.0646   -1.3615    3.1712 H       1  UNL1        0.1048
     28 H2*         0.9623    0.9756   -1.9773 H       1  UNL1        0.0665
     29 H2*         1.7091   -1.6010   -2.3980 H       1  UNL1        0.2101
     30 H3*         1.6455    1.2661    0.3856 H       1  UNL1        0.0647
     31 H3*         3.4881    1.7231   -0.7818 H       1  UNL1        0.2100
@<TRIPOS>BOND
     1     1     2    1
     2     2     3    1
     3     3     4    1
     4     4     5    1
     5     5     6    1
     6     6     7   ar
     7     7     8   ar
     8     8     9    1
     9     8    10   ar
    10    10    11   ar
    11    11    12    1
    12    11    13   ar
    13    13    14   ar
    14    14    15   ar
    15    15    16   ar
    16     5    17    1
    17    17    18    1
    18    17    19    1
    19    19    20    1
    20    19     3    1
    21    16     6   ar
    22    16    10   ar
    23     1    21    1
    24     2    22    1
    25     2    23    1
    26     3    24    1
    27     5    25    1
    28     7    26    1
    29    14    27    1
    30    17    28    1
    31    18    29    1
    32    19    30    1
    33    20    31    1
