@<TRIPOS>MOLECULE
*****
 81 86 0 0 0
SMALL
GASTEIGER

@<TRIPOS>ATOM
      1 C         -11.1675    1.8106    1.9500 C.3     1  UNL1       -0.0307
      2 C         -10.0757    1.4241    2.9078 C.3     1  UNL1        0.0868
      3 O          -8.8676    1.1094    2.2472 O.3     1  UNL1       -0.4913
      4 C          -8.6903    0.1131    1.3380 C.ar    1  UNL1        0.1379
      5 C          -9.6804   -0.7459    0.9160 C.ar    1  UNL1        0.0652
      6 C          -9.3483   -1.7112   -0.0196 C.ar    1  UNL1        0.3408
      7 O         -10.3002   -2.4782   -0.3756 O.2     1  UNL1       -0.2451
      8 O          -8.1486   -1.8451   -0.5169 O.2     1  UNL1       -0.4218
      9 C          -7.1754   -1.0559   -0.1484 C.ar    1  UNL1        0.1460
     10 C          -5.8922   -1.2044   -0.6821 C.ar    1  UNL1        0.0232
     11 C          -4.8851   -0.3602   -0.2736 C.ar    1  UNL1        0.1241
     12 O          -3.6211   -0.5174   -0.8084 O.3     1  UNL1       -0.4906
     13 C          -3.3508   -1.5096   -1.7579 C.3     1  UNL1        0.1022
     14 C          -1.9656   -1.6074   -2.2624 C.3     1  UNL1        0.0332
     15 N          -1.5298   -0.4008   -2.8981 N.3     1  UNL1       -0.2967
     16 C          -0.2343   -0.6714   -3.5456 C.3     1  UNL1        0.0118
     17 C           0.9038   -0.1896   -2.7093 C.3     1  UNL1        0.0117
     18 N           0.6360   -0.4448   -1.3240 N.3     1  UNL1       -0.2999
     19 C           1.7971   -0.3624   -0.5103 C.3     1  UNL1        0.0004
     20 C           2.3649    1.0262   -0.3844 C.3     1  UNL1       -0.0246
     21 C           3.5917    0.9703    0.4995 C.3     1  UNL1        0.0103
     22 N           4.5698    0.1211   -0.1387 N.pl3   1  UNL1       -0.3430
     23 C           5.8025   -0.0964    0.5588 C.ar    1  UNL1        0.0413
     24 C           6.8811    0.7178    0.3475 C.ar    1  UNL1       -0.0047
     25 C           8.0131    0.4438    1.0892 C.ar    1  UNL1        0.0469
     26 N           8.0978   -0.5653    1.9867 N.ar    1  UNL1       -0.2512
     27 C           7.0339   -1.3583    2.1844 C.ar    1  UNL1        0.0731
     28 C           7.1204   -2.3976    3.1034 C.ar    1  UNL1       -0.0357
     29 C           5.9959   -3.1783    3.2595 C.ar    1  UNL1       -0.0597
     30 C           4.8290   -2.9739    2.5620 C.ar    1  UNL1       -0.0610
     31 C           4.7579   -1.9549    1.6672 C.ar    1  UNL1       -0.0508
     32 C           5.8599   -1.1477    1.4788 C.ar    1  UNL1        0.0215
     33 C           9.2157    1.2738    0.9357 C.3     1  UNL1       -0.0101
     34 C           9.1996    1.9145   -0.4301 C.3     1  UNL1       -0.0473
     35 C           7.9302    2.7790   -0.4568 C.3     1  UNL1       -0.0486
     36 C           6.7896    1.7925   -0.6492 C.3     1  UNL1       -0.0242
     37 C          -0.4707    0.2956   -0.8147 C.3     1  UNL1        0.0117
     38 C          -1.3630    0.7059   -1.9688 C.3     1  UNL1        0.0118
     39 C          -5.1498    0.6300    0.6620 C.ar    1  UNL1       -0.0190
     40 C          -6.4004    0.7980    1.2012 C.ar    1  UNL1       -0.0441
     41 C          -7.4106   -0.0495    0.7911 C.ar    1  UNL1        0.0594
     42 H         -11.3403    2.9250    2.0238 H       1  UNL1        0.0262
     43 H         -10.8704    1.6765    0.8710 H       1  UNL1        0.0262
     44 H         -12.0971    1.2500    2.1057 H       1  UNL1        0.0262
     45 H         -10.3983    0.5617    3.5614 H       1  UNL1        0.0694
     46 H          -9.9231    2.2624    3.6138 H       1  UNL1        0.0694
     47 H         -10.6811   -0.6535    1.3186 H       1  UNL1        0.0726
     48 H          -5.7090   -1.9795   -1.4082 H       1  UNL1        0.0691
     49 H          -3.6386   -2.5012   -1.3067 H       1  UNL1        0.0709
     50 H          -4.0913   -1.3249   -2.5991 H       1  UNL1        0.0709
     51 H          -1.2302   -1.8999   -1.4737 H       1  UNL1        0.0460
     52 H          -1.9446   -2.4781   -2.9800 H       1  UNL1        0.0460
     53 H          -0.1914   -1.7495   -3.7273 H       1  UNL1        0.0439
     54 H          -0.2881   -0.1852   -4.5403 H       1  UNL1        0.0439
     55 H           1.8275   -0.7753   -2.9704 H       1  UNL1        0.0439
     56 H           1.0736    0.8987   -2.8459 H       1  UNL1        0.0439
     57 H           2.6090   -1.0434   -0.8459 H       1  UNL1        0.0427
     58 H           1.5730   -0.7077    0.5365 H       1  UNL1        0.0427
     59 H           1.6762    1.7498    0.0899 H       1  UNL1        0.0293
     60 H           2.7357    1.4026   -1.3756 H       1  UNL1        0.0293
     61 H           3.9129    2.0150    0.6520 H       1  UNL1        0.0461
     62 H           3.2361    0.5322    1.4671 H       1  UNL1        0.0461
     63 H           4.4455   -0.3336   -1.0638 H       1  UNL1        0.1461
     64 H           8.0331   -2.5739    3.6628 H       1  UNL1        0.0639
     65 H           6.0365   -4.0072    3.9796 H       1  UNL1        0.0618
     66 H           3.9492   -3.6003    2.6963 H       1  UNL1        0.0618
     67 H           3.8699   -1.7303    1.0740 H       1  UNL1        0.0625
     68 H           9.2122    2.1334    1.6701 H       1  UNL1        0.0328
     69 H          10.1519    0.6891    1.1016 H       1  UNL1        0.0328
     70 H          10.0896    2.5377   -0.6192 H       1  UNL1        0.0269
     71 H           9.0790    1.1813   -1.2452 H       1  UNL1        0.0269
     72 H           7.8555    3.2662    0.5145 H       1  UNL1        0.0269
     73 H           7.9315    3.4534   -1.3215 H       1  UNL1        0.0269
     74 H           5.8169    2.2671   -0.6664 H       1  UNL1        0.0314
     75 H           7.0083    1.3120   -1.6530 H       1  UNL1        0.0314
     76 H          -0.2156    1.2281   -0.2768 H       1  UNL1        0.0439
     77 H          -1.0188   -0.3395   -0.1152 H       1  UNL1        0.0439
     78 H          -0.8536    1.5028   -2.5603 H       1  UNL1        0.0439
     79 H          -2.3125    1.0844   -1.6554 H       1  UNL1        0.0439
     80 H          -4.3622    1.2779    0.9712 H       1  UNL1        0.0654
     81 H          -6.6194    1.5761    1.9389 H       1  UNL1        0.0627
@<TRIPOS>BOND
     1     1     2    1
     2     2     3    1
     3     3     4    1
     4     4     5   ar
     5     5     6   ar
     6     6     7    2
     7     6     8   ar
     8     8     9   ar
     9     9    10   ar
    10    10    11   ar
    11    11    12    1
    12    12    13    1
    13    13    14    1
    14    14    15    1
    15    15    16    1
    16    16    17    1
    17    17    18    1
    18    18    19    1
    19    19    20    1
    20    20    21    1
    21    21    22    1
    22    22    23    1
    23    23    24   ar
    24    24    25   ar
    25    25    26   ar
    26    26    27   ar
    27    27    28   ar
    28    28    29   ar
    29    29    30   ar
    30    30    31   ar
    31    31    32   ar
    32    25    33    1
    33    33    34    1
    34    34    35    1
    35    35    36    1
    36    18    37    1
    37    37    38    1
    38    11    39   ar
    39    39    40   ar
    40    40    41   ar
    41    41     4   ar
    42    41     9   ar
    43    38    15    1
    44    32    23   ar
    45    36    24    1
    46    32    27   ar
    47     1    42    1
    48     1    43    1
    49     1    44    1
    50     2    45    1
    51     2    46    1
    52     5    47    1
    53    10    48    1
    54    13    49    1
    55    13    50    1
    56    14    51    1
    57    14    52    1
    58    16    53    1
    59    16    54    1
    60    17    55    1
    61    17    56    1
    62    19    57    1
    63    19    58    1
    64    20    59    1
    65    20    60    1
    66    21    61    1
    67    21    62    1
    68    22    63    1
    69    28    64    1
    70    29    65    1
    71    30    66    1
    72    31    67    1
    73    33    68    1
    74    33    69    1
    75    34    70    1
    76    34    71    1
    77    35    72    1
    78    35    73    1
    79    36    74    1
    80    36    75    1
    81    37    76    1
    82    37    77    1
    83    38    78    1
    84    38    79    1
    85    39    80    1
    86    40    81    1
