
     RDKit          3D

 81 86  0  0  0  0  0  0  0  0999 V2000
  -11.1675    1.8106    1.9500 C   0  0  0  0  0  0  0  0  0  0  0  0
  -10.0757    1.4241    2.9078 C   0  0  0  0  0  0  0  0  0  0  0  0
   -8.8676    1.1094    2.2472 O   0  0  0  0  0  0  0  0  0  0  0  0
   -8.6903    0.1131    1.3380 C   0  0  0  0  0  0  0  0  0  0  0  0
   -9.6804   -0.7459    0.9160 C   0  0  0  0  0  0  0  0  0  0  0  0
   -9.3483   -1.7112   -0.0196 C   0  0  0  0  0  0  0  0  0  0  0  0
  -10.3002   -2.4782   -0.3756 O   0  0  0  0  0  0  0  0  0  0  0  0
   -8.1486   -1.8451   -0.5169 O   0  0  0  0  0  0  0  0  0  0  0  0
   -7.1754   -1.0559   -0.1484 C   0  0  0  0  0  0  0  0  0  0  0  0
   -5.8922   -1.2044   -0.6821 C   0  0  0  0  0  0  0  0  0  0  0  0
   -4.8851   -0.3602   -0.2736 C   0  0  0  0  0  0  0  0  0  0  0  0
   -3.6211   -0.5174   -0.8084 O   0  0  0  0  0  0  0  0  0  0  0  0
   -3.3508   -1.5096   -1.7579 C   0  0  0  0  0  0  0  0  0  0  0  0
   -1.9656   -1.6074   -2.2624 C   0  0  0  0  0  0  0  0  0  0  0  0
   -1.5298   -0.4008   -2.8981 N   0  0  0  0  0  0  0  0  0  0  0  0
   -0.2343   -0.6714   -3.5456 C   0  0  0  0  0  0  0  0  0  0  0  0
    0.9038   -0.1896   -2.7093 C   0  0  0  0  0  0  0  0  0  0  0  0
    0.6360   -0.4448   -1.3240 N   0  0  0  0  0  0  0  0  0  0  0  0
    1.7971   -0.3624   -0.5103 C   0  0  0  0  0  0  0  0  0  0  0  0
    2.3649    1.0262   -0.3844 C   0  0  0  0  0  0  0  0  0  0  0  0
    3.5917    0.9703    0.4995 C   0  0  0  0  0  0  0  0  0  0  0  0
    4.5698    0.1211   -0.1387 N   0  0  0  0  0  0  0  0  0  0  0  0
    5.8025   -0.0964    0.5588 C   0  0  0  0  0  0  0  0  0  0  0  0
    6.8811    0.7178    0.3475 C   0  0  0  0  0  0  0  0  0  0  0  0
    8.0131    0.4438    1.0892 C   0  0  0  0  0  0  0  0  0  0  0  0
    8.0978   -0.5653    1.9867 N   0  0  0  0  0  0  0  0  0  0  0  0
    7.0339   -1.3583    2.1844 C   0  0  0  0  0  0  0  0  0  0  0  0
    7.1204   -2.3976    3.1034 C   0  0  0  0  0  0  0  0  0  0  0  0
    5.9959   -3.1783    3.2595 C   0  0  0  0  0  0  0  0  0  0  0  0
    4.8290   -2.9739    2.5620 C   0  0  0  0  0  0  0  0  0  0  0  0
    4.7579   -1.9549    1.6672 C   0  0  0  0  0  0  0  0  0  0  0  0
    5.8599   -1.1477    1.4788 C   0  0  0  0  0  0  0  0  0  0  0  0
    9.2157    1.2738    0.9357 C   0  0  0  0  0  0  0  0  0  0  0  0
    9.1996    1.9145   -0.4301 C   0  0  0  0  0  0  0  0  0  0  0  0
    7.9302    2.7790   -0.4568 C   0  0  0  0  0  0  0  0  0  0  0  0
    6.7896    1.7925   -0.6492 C   0  0  0  0  0  0  0  0  0  0  0  0
   -0.4707    0.2956   -0.8147 C   0  0  0  0  0  0  0  0  0  0  0  0
   -1.3630    0.7059   -1.9688 C   0  0  0  0  0  0  0  0  0  0  0  0
   -5.1498    0.6300    0.6620 C   0  0  0  0  0  0  0  0  0  0  0  0
   -6.4004    0.7980    1.2012 C   0  0  0  0  0  0  0  0  0  0  0  0
   -7.4106   -0.0495    0.7911 C   0  0  0  0  0  0  0  0  0  0  0  0
  -11.3403    2.9250    2.0238 H   0  0  0  0  0  0  0  0  0  0  0  0
  -10.8704    1.6765    0.8710 H   0  0  0  0  0  0  0  0  0  0  0  0
  -12.0971    1.2500    2.1057 H   0  0  0  0  0  0  0  0  0  0  0  0
  -10.3983    0.5617    3.5614 H   0  0  0  0  0  0  0  0  0  0  0  0
   -9.9231    2.2624    3.6138 H   0  0  0  0  0  0  0  0  0  0  0  0
  -10.6811   -0.6535    1.3186 H   0  0  0  0  0  0  0  0  0  0  0  0
   -5.7090   -1.9795   -1.4082 H   0  0  0  0  0  0  0  0  0  0  0  0
   -3.6386   -2.5012   -1.3067 H   0  0  0  0  0  0  0  0  0  0  0  0
   -4.0913   -1.3249   -2.5991 H   0  0  0  0  0  0  0  0  0  0  0  0
   -1.2302   -1.8999   -1.4737 H   0  0  0  0  0  0  0  0  0  0  0  0
   -1.9446   -2.4781   -2.9800 H   0  0  0  0  0  0  0  0  0  0  0  0
   -0.1914   -1.7495   -3.7273 H   0  0  0  0  0  0  0  0  0  0  0  0
   -0.2881   -0.1852   -4.5403 H   0  0  0  0  0  0  0  0  0  0  0  0
    1.8275   -0.7753   -2.9704 H   0  0  0  0  0  0  0  0  0  0  0  0
    1.0736    0.8987   -2.8459 H   0  0  0  0  0  0  0  0  0  0  0  0
    2.6090   -1.0434   -0.8459 H   0  0  0  0  0  0  0  0  0  0  0  0
    1.5730   -0.7077    0.5365 H   0  0  0  0  0  0  0  0  0  0  0  0
    1.6762    1.7498    0.0899 H   0  0  0  0  0  0  0  0  0  0  0  0
    2.7357    1.4026   -1.3756 H   0  0  0  0  0  0  0  0  0  0  0  0
    3.9129    2.0150    0.6520 H   0  0  0  0  0  0  0  0  0  0  0  0
    3.2361    0.5322    1.4671 H   0  0  0  0  0  0  0  0  0  0  0  0
    4.4455   -0.3336   -1.0638 H   0  0  0  0  0  0  0  0  0  0  0  0
    8.0331   -2.5739    3.6628 H   0  0  0  0  0  0  0  0  0  0  0  0
    6.0365   -4.0072    3.9796 H   0  0  0  0  0  0  0  0  0  0  0  0
    3.9492   -3.6003    2.6963 H   0  0  0  0  0  0  0  0  0  0  0  0
    3.8699   -1.7303    1.0740 H   0  0  0  0  0  0  0  0  0  0  0  0
    9.2122    2.1334    1.6701 H   0  0  0  0  0  0  0  0  0  0  0  0
   10.1519    0.6891    1.1016 H   0  0  0  0  0  0  0  0  0  0  0  0
   10.0896    2.5377   -0.6192 H   0  0  0  0  0  0  0  0  0  0  0  0
    9.0790    1.1813   -1.2452 H   0  0  0  0  0  0  0  0  0  0  0  0
    7.8555    3.2662    0.5145 H   0  0  0  0  0  0  0  0  0  0  0  0
    7.9315    3.4534   -1.3215 H   0  0  0  0  0  0  0  0  0  0  0  0
    5.8169    2.2671   -0.6664 H   0  0  0  0  0  0  0  0  0  0  0  0
    7.0083    1.3120   -1.6530 H   0  0  0  0  0  0  0  0  0  0  0  0
   -0.2156    1.2281   -0.2768 H   0  0  0  0  0  0  0  0  0  0  0  0
   -1.0188   -0.3395   -0.1152 H   0  0  0  0  0  0  0  0  0  0  0  0
   -0.8536    1.5028   -2.5603 H   0  0  0  0  0  0  0  0  0  0  0  0
   -2.3125    1.0844   -1.6554 H   0  0  0  0  0  0  0  0  0  0  0  0
   -4.3622    1.2779    0.9712 H   0  0  0  0  0  0  0  0  0  0  0  0
   -6.6194    1.5761    1.9389 H   0  0  0  0  0  0  0  0  0  0  0  0
  1  2  1  0
  2  3  1  0
  3  4  1  0
  4  5  2  0
  5  6  1  0
  6  7  2  0
  6  8  1  0
  8  9  1  0
  9 10  2  0
 10 11  1  0
 11 12  1  0
 12 13  1  0
 13 14  1  0
 14 15  1  0
 15 16  1  0
 16 17  1  0
 17 18  1  0
 18 19  1  0
 19 20  1  0
 20 21  1  0
 21 22  1  0
 22 23  1  0
 23 24  2  0
 24 25  1  0
 25 26  2  0
 26 27  1  0
 27 28  2  0
 28 29  1  0
 29 30  2  0
 30 31  1  0
 31 32  2  0
 25 33  1  0
 33 34  1  0
 34 35  1  0
 35 36  1  0
 18 37  1  0
 37 38  1  0
 11 39  2  0
 39 40  1  0
 40 41  2  0
 41  4  1  0
 41  9  1  0
 38 15  1  0
 32 23  1  0
 36 24  1  0
 32 27  1  0
  1 42  1  0
  1 43  1  0
  1 44  1  0
  2 45  1  0
  2 46  1  0
  5 47  1  0
 10 48  1  0
 13 49  1  0
 13 50  1  0
 14 51  1  0
 14 52  1  0
 16 53  1  0
 16 54  1  0
 17 55  1  0
 17 56  1  0
 19 57  1  0
 19 58  1  0
 20 59  1  0
 20 60  1  0
 21 61  1  0
 21 62  1  0
 22 63  1  0
 28 64  1  0
 29 65  1  0
 30 66  1  0
 31 67  1  0
 33 68  1  0
 33 69  1  0
 34 70  1  0
 34 71  1  0
 35 72  1  0
 35 73  1  0
 36 74  1  0
 36 75  1  0
 37 76  1  0
 37 77  1  0
 38 78  1  0
 38 79  1  0
 39 80  1  0
 40 81  1  0
M  END
$$$$
