@<TRIPOS>MOLECULE
*****
 47 49 0 0 0
SMALL
GASTEIGER

@<TRIPOS>ATOM
      1 C           0.5013   -4.3398    0.8447 C.3     1  UNL1       -0.0369
      2 C           0.3116   -2.8874    0.6052 C.ar    1  UNL1       -0.0132
      3 C          -0.9591   -2.3746    0.7357 C.ar    1  UNL1       -0.0348
      4 C          -1.1458   -1.0314    0.5162 C.ar    1  UNL1        0.0345
      5 N          -2.4333   -0.4349    0.6339 N.am    1  UNL1       -0.2802
      6 C          -3.3340   -0.3288   -0.4514 C.2     1  UNL1        0.2666
      7 O          -3.0047   -0.7736   -1.5777 O.2     1  UNL1       -0.2682
      8 C          -4.6476    0.2883   -0.2993 C.ar    1  UNL1        0.1258
      9 C          -5.5225    0.3922   -1.3502 C.ar    1  UNL1       -0.0285
     10 C          -6.7644    0.9772   -1.2008 C.ar    1  UNL1       -0.0228
     11 C          -7.1609    1.4756    0.0160 C.ar    1  UNL1        0.1414
     12 F          -8.3572    2.0558    0.2226 F       1  UNL1       -0.2039
     13 C          -6.2660    1.3615    1.0616 C.ar    1  UNL1        0.0636
     14 N          -5.0658    0.7883    0.8875 N.ar    1  UNL1       -0.2475
     15 C          -0.0757   -0.2319    0.1746 C.ar    1  UNL1       -0.0321
     16 C           1.2087   -0.7144    0.0360 C.ar    1  UNL1        0.0198
     17 C           2.3662    0.1455   -0.3326 C.3     1  UNL1        0.1258
     18 C           2.8786   -0.2666   -1.7186 C.3     1  UNL1        0.1196
     19 F           3.9538    0.5216   -2.0777 F       1  UNL1       -0.2462
     20 C           3.4346    0.0322    0.7051 C.3     1  UNL1        0.0251
     21 C           4.1812    1.2885    0.9810 C.3     1  UNL1        0.1998
     22 C           5.6882    1.0905    1.0488 C.3     1  UNL1        0.4266
     23 F           6.2521    2.3332    1.3097 F       1  UNL1       -0.1669
     24 F           6.2146    0.6013   -0.1087 F       1  UNL1       -0.1669
     25 F           6.0516    0.2629    2.0757 F       1  UNL1       -0.1669
     26 O           3.8636    2.3477    0.1234 O.2     1  UNL1       -0.4534
     27 C           2.5446    2.5421   -0.2801 C.2     1  UNL1        0.2766
     28 N           1.9845    3.8362   -0.4526 N.pl3   1  UNL1       -0.3134
     29 N           1.8463    1.4895   -0.4927 N.2     1  UNL1       -0.2228
     30 C           1.3683   -2.0758    0.2637 C.ar    1  UNL1        0.1319
     31 F           2.6149   -2.5838    0.1367 F       1  UNL1       -0.2048
     32 H           0.6387   -4.8016   -0.1764 H       1  UNL1        0.0278
     33 H           1.4502   -4.5511    1.3807 H       1  UNL1        0.0278
     34 H          -0.3745   -4.7897    1.3114 H       1  UNL1        0.0278
     35 H          -1.7986   -3.0362    1.0102 H       1  UNL1        0.0640
     36 H          -2.7781   -0.0376    1.5565 H       1  UNL1        0.1552
     37 H          -5.2037   -0.0051   -2.3158 H       1  UNL1        0.0641
     38 H          -7.4493    1.0562   -2.0324 H       1  UNL1        0.0647
     39 H          -6.5120    1.7322    2.0471 H       1  UNL1        0.0859
     40 H          -0.2027    0.8475   -0.0059 H       1  UNL1        0.0640
     41 H           3.0839   -1.3336   -1.7864 H       1  UNL1        0.0643
     42 H           2.0511    0.0075   -2.4250 H       1  UNL1        0.0643
     43 H           2.9808   -0.4075    1.6409 H       1  UNL1        0.0331
     44 H           4.1686   -0.7385    0.3661 H       1  UNL1        0.0331
     45 H           3.8882    1.6244    2.0191 H       1  UNL1        0.0826
     46 H           2.0652    4.5917    0.2571 H       1  UNL1        0.1466
     47 H           1.4649    4.0544   -1.3269 H       1  UNL1        0.1466
@<TRIPOS>BOND
     1     1     2    1
     2     2     3   ar
     3     3     4   ar
     4     4     5    1
     5     5     6   am
     6     6     7    2
     7     6     8    1
     8     8     9   ar
     9     9    10   ar
    10    10    11   ar
    11    11    12    1
    12    11    13   ar
    13    13    14   ar
    14     4    15   ar
    15    15    16   ar
    16    16    17    1
    17    17    18    1
    18    18    19    1
    19    17    20    1
    20    20    21    1
    21    21    22    1
    22    22    23    1
    23    22    24    1
    24    22    25    1
    25    21    26    1
    26    26    27    1
    27    27    28    1
    28    27    29    2
    29    16    30   ar
    30    30    31    1
    31    30     2   ar
    32    14     8   ar
    33    29    17    1
    34     1    32    1
    35     1    33    1
    36     1    34    1
    37     3    35    1
    38     5    36    1
    39     9    37    1
    40    10    38    1
    41    13    39    1
    42    15    40    1
    43    18    41    1
    44    18    42    1
    45    20    43    1
    46    20    44    1
    47    21    45    1
    48    28    46    1
    49    28    47    1
