@<TRIPOS>MOLECULE
*****
 60 63 0 0 0
SMALL
GASTEIGER

@<TRIPOS>ATOM
      1 C           0.4640    6.9212    0.6525 C.3     1  UNL1       -0.0319
      2 C          -0.2098    5.6059    0.5790 C.ar    1  UNL1        0.0068
      3 C          -1.5083    5.2263    0.4902 C.ar    1  UNL1        0.0383
      4 N          -1.7630    3.9582    0.4435 N.ar    1  UNL1       -0.2471
      5 C          -0.9745    3.0315    0.4690 C.ar    1  UNL1        0.1086
      6 C          -0.9334    1.5912    0.4362 C.ar    1  UNL1        0.0113
      7 C          -2.1072    0.8910    0.3467 C.ar    1  UNL1       -0.0102
      8 C          -2.1061   -0.5093    0.3124 C.ar    1  UNL1        0.1219
      9 O          -3.2841   -1.1936    0.2231 O.3     1  UNL1       -0.4913
     10 C          -4.5554   -0.6229    0.1589 C.3     1  UNL1        0.0971
     11 C          -5.5807   -1.7291    0.0686 C.3     1  UNL1        0.0274
     12 C          -6.9870   -1.2002   -0.0049 C.3     1  UNL1       -0.0543
     13 C          -5.2539   -2.6493   -1.0891 C.3     1  UNL1       -0.0188
     14 C          -4.2746   -3.5962   -0.4736 C.3     1  UNL1        0.0484
     15 O          -4.2685   -3.4033    0.8832 O.3     1  UNL1       -0.3791
     16 C          -5.3695   -2.6660    1.2394 C.3     1  UNL1        0.0562
     17 C          -0.8848   -1.1480    0.3719 C.ar    1  UNL1       -0.0078
     18 C           0.3211   -0.4678    0.4628 C.ar    1  UNL1        0.0408
     19 C           1.5571   -1.2216    0.5203 C.2     1  UNL1        0.2447
     20 O           1.5616   -2.4953    0.4889 O.2     1  UNL1       -0.2702
     21 N           2.8407   -0.6200    0.6145 N.am    1  UNL1       -0.3047
     22 C           4.0655   -1.4281    0.6700 C.3     1  UNL1        0.0487
     23 C           4.6490   -1.1572    2.0633 C.3     1  UNL1       -0.0423
     24 C           5.0021   -1.0884   -0.3917 C.ar    1  UNL1        0.0087
     25 C           5.6449   -2.0561   -1.1293 C.ar    1  UNL1        0.0363
     26 N           6.5131   -1.7265   -2.1135 N.ar    1  UNL1       -0.2321
     27 C           6.7770   -0.4494   -2.4040 C.ar    1  UNL1        0.2339
     28 C           7.7472   -0.1655   -3.5045 C.3     1  UNL1        0.4522
     29 F           8.4334    0.9723   -3.1949 F       1  UNL1       -0.1632
     30 F           6.9803   -0.0286   -4.6647 F       1  UNL1       -0.1632
     31 F           8.5800   -1.2660   -3.6709 F       1  UNL1       -0.1632
     32 N           6.1697    0.5157   -1.7068 N.ar    1  UNL1       -0.2321
     33 C           5.2881    0.2193   -0.7071 C.ar    1  UNL1        0.0363
     34 C           0.2498    0.9096    0.4922 C.ar    1  UNL1       -0.0397
     35 S           0.6455    3.9961    0.5918 S.2     1  UNL1       -0.0725
     36 H           1.4937    6.8729    0.2250 H       1  UNL1        0.0283
     37 H          -0.1133    7.6226    0.0402 H       1  UNL1        0.0283
     38 H           0.5250    7.1974    1.7252 H       1  UNL1        0.0283
     39 H          -2.3115    5.9957    0.4599 H       1  UNL1        0.0838
     40 H          -3.0262    1.4533    0.3040 H       1  UNL1        0.0661
     41 H          -4.7914    0.0567    0.9879 H       1  UNL1        0.0703
     42 H          -4.6086   -0.0527   -0.8097 H       1  UNL1        0.0703
     43 H          -7.3019   -0.9657   -1.0419 H       1  UNL1        0.0237
     44 H          -7.7231   -1.9377    0.4152 H       1  UNL1        0.0237
     45 H          -7.0445   -0.2516    0.5810 H       1  UNL1        0.0237
     46 H          -6.1864   -3.2191   -1.3446 H       1  UNL1        0.0294
     47 H          -4.8595   -2.1000   -1.9673 H       1  UNL1        0.0294
     48 H          -4.4197   -4.6482   -0.7886 H       1  UNL1        0.0560
     49 H          -3.2540   -3.3039   -0.8601 H       1  UNL1        0.0560
     50 H          -6.2776   -3.3229    1.3485 H       1  UNL1        0.0566
     51 H          -5.2086   -2.1111    2.1851 H       1  UNL1        0.0566
     52 H          -0.8319   -2.2487    0.3481 H       1  UNL1        0.0662
     53 H           2.9300    0.4176    0.6458 H       1  UNL1        0.1496
     54 H           3.7619   -2.4920    0.6249 H       1  UNL1        0.0546
     55 H           3.8061   -0.9886    2.7727 H       1  UNL1        0.0251
     56 H           5.2917   -2.0115    2.3597 H       1  UNL1        0.0251
     57 H           5.3057   -0.2606    2.0382 H       1  UNL1        0.0251
     58 H           5.4282   -3.1018   -0.8906 H       1  UNL1        0.0834
     59 H           4.8029    1.0068   -0.1500 H       1  UNL1        0.0834
     60 H           1.1840    1.4433    0.5628 H       1  UNL1        0.0632
@<TRIPOS>BOND
     1     1     2    1
     2     2     3   ar
     3     3     4   ar
     4     4     5   ar
     5     5     6    1
     6     6     7   ar
     7     7     8   ar
     8     8     9    1
     9     9    10    1
    10    11    10    1
    11    11    12    1
    12    11    13    1
    13    13    14    1
    14    14    15    1
    15    15    16    1
    16     8    17   ar
    17    17    18   ar
    18    18    19    1
    19    19    20    2
    20    19    21   am
    21    21    22    1
    22    22    23    1
    23    22    24    1
    24    24    25   ar
    25    25    26   ar
    26    26    27   ar
    27    27    28    1
    28    28    29    1
    29    28    30    1
    30    28    31    1
    31    27    32   ar
    32    32    33   ar
    33    18    34   ar
    34     5    35   ar
    35    35     2   ar
    36    34     6   ar
    37    16    11    1
    38    33    24   ar
    39     1    36    1
    40     1    37    1
    41     1    38    1
    42     3    39    1
    43     7    40    1
    44    10    41    1
    45    10    42    1
    46    12    43    1
    47    12    44    1
    48    12    45    1
    49    13    46    1
    50    13    47    1
    51    14    48    1
    52    14    49    1
    53    16    50    1
    54    16    51    1
    55    17    52    1
    56    21    53    1
    57    22    54    1
    58    23    55    1
    59    23    56    1
    60    23    57    1
    61    25    58    1
    62    33    59    1
    63    34    60    1
