
     RDKit          3D

 60 63  0  0  0  0  0  0  0  0999 V2000
    0.4640    6.9212    0.6525 C   0  0  0  0  0  0  0  0  0  0  0  0
   -0.2098    5.6059    0.5790 C   0  0  0  0  0  0  0  0  0  0  0  0
   -1.5083    5.2263    0.4902 C   0  0  0  0  0  0  0  0  0  0  0  0
   -1.7630    3.9582    0.4435 N   0  0  0  0  0  0  0  0  0  0  0  0
   -0.9745    3.0315    0.4690 C   0  0  0  0  0  0  0  0  0  0  0  0
   -0.9334    1.5912    0.4362 C   0  0  0  0  0  0  0  0  0  0  0  0
   -2.1072    0.8910    0.3467 C   0  0  0  0  0  0  0  0  0  0  0  0
   -2.1061   -0.5093    0.3124 C   0  0  0  0  0  0  0  0  0  0  0  0
   -3.2841   -1.1936    0.2231 O   0  0  0  0  0  0  0  0  0  0  0  0
   -4.5554   -0.6229    0.1589 C   0  0  0  0  0  0  0  0  0  0  0  0
   -5.5807   -1.7291    0.0686 C   0  0  1  0  0  0  0  0  0  0  0  0
   -6.9870   -1.2002   -0.0049 C   0  0  0  0  0  0  0  0  0  0  0  0
   -5.2539   -2.6493   -1.0891 C   0  0  0  0  0  0  0  0  0  0  0  0
   -4.2746   -3.5962   -0.4736 C   0  0  0  0  0  0  0  0  0  0  0  0
   -4.2685   -3.4033    0.8832 O   0  0  0  0  0  0  0  0  0  0  0  0
   -5.3695   -2.6660    1.2394 C   0  0  0  0  0  0  0  0  0  0  0  0
   -0.8848   -1.1480    0.3719 C   0  0  0  0  0  0  0  0  0  0  0  0
    0.3211   -0.4678    0.4628 C   0  0  0  0  0  0  0  0  0  0  0  0
    1.5571   -1.2216    0.5203 C   0  0  0  0  0  0  0  0  0  0  0  0
    1.5616   -2.4953    0.4889 O   0  0  0  0  0  0  0  0  0  0  0  0
    2.8407   -0.6200    0.6145 N   0  0  0  0  0  0  0  0  0  0  0  0
    4.0655   -1.4281    0.6700 C   0  0  2  0  0  0  0  0  0  0  0  0
    4.6490   -1.1572    2.0633 C   0  0  0  0  0  0  0  0  0  0  0  0
    5.0021   -1.0884   -0.3917 C   0  0  0  0  0  0  0  0  0  0  0  0
    5.6449   -2.0561   -1.1293 C   0  0  0  0  0  0  0  0  0  0  0  0
    6.5131   -1.7265   -2.1135 N   0  0  0  0  0  0  0  0  0  0  0  0
    6.7770   -0.4494   -2.4040 C   0  0  0  0  0  0  0  0  0  0  0  0
    7.7472   -0.1655   -3.5045 C   0  0  0  0  0  0  0  0  0  0  0  0
    8.4334    0.9723   -3.1949 F   0  0  0  0  0  0  0  0  0  0  0  0
    6.9803   -0.0286   -4.6647 F   0  0  0  0  0  0  0  0  0  0  0  0
    8.5800   -1.2660   -3.6709 F   0  0  0  0  0  0  0  0  0  0  0  0
    6.1697    0.5157   -1.7068 N   0  0  0  0  0  0  0  0  0  0  0  0
    5.2881    0.2193   -0.7071 C   0  0  0  0  0  0  0  0  0  0  0  0
    0.2498    0.9096    0.4922 C   0  0  0  0  0  0  0  0  0  0  0  0
    0.6455    3.9961    0.5918 S   0  0  0  0  0  0  0  0  0  0  0  0
    1.4937    6.8729    0.2250 H   0  0  0  0  0  0  0  0  0  0  0  0
   -0.1133    7.6226    0.0402 H   0  0  0  0  0  0  0  0  0  0  0  0
    0.5250    7.1974    1.7252 H   0  0  0  0  0  0  0  0  0  0  0  0
   -2.3115    5.9957    0.4599 H   0  0  0  0  0  0  0  0  0  0  0  0
   -3.0262    1.4533    0.3040 H   0  0  0  0  0  0  0  0  0  0  0  0
   -4.7914    0.0567    0.9879 H   0  0  0  0  0  0  0  0  0  0  0  0
   -4.6086   -0.0527   -0.8097 H   0  0  0  0  0  0  0  0  0  0  0  0
   -7.3019   -0.9657   -1.0419 H   0  0  0  0  0  0  0  0  0  0  0  0
   -7.7231   -1.9377    0.4152 H   0  0  0  0  0  0  0  0  0  0  0  0
   -7.0445   -0.2516    0.5810 H   0  0  0  0  0  0  0  0  0  0  0  0
   -6.1864   -3.2191   -1.3446 H   0  0  0  0  0  0  0  0  0  0  0  0
   -4.8595   -2.1000   -1.9673 H   0  0  0  0  0  0  0  0  0  0  0  0
   -4.4197   -4.6482   -0.7886 H   0  0  0  0  0  0  0  0  0  0  0  0
   -3.2540   -3.3039   -0.8601 H   0  0  0  0  0  0  0  0  0  0  0  0
   -6.2776   -3.3229    1.3485 H   0  0  0  0  0  0  0  0  0  0  0  0
   -5.2086   -2.1111    2.1851 H   0  0  0  0  0  0  0  0  0  0  0  0
   -0.8319   -2.2487    0.3481 H   0  0  0  0  0  0  0  0  0  0  0  0
    2.9300    0.4176    0.6458 H   0  0  0  0  0  0  0  0  0  0  0  0
    3.7619   -2.4920    0.6249 H   0  0  0  0  0  0  0  0  0  0  0  0
    3.8061   -0.9886    2.7727 H   0  0  0  0  0  0  0  0  0  0  0  0
    5.2917   -2.0115    2.3597 H   0  0  0  0  0  0  0  0  0  0  0  0
    5.3057   -0.2606    2.0382 H   0  0  0  0  0  0  0  0  0  0  0  0
    5.4282   -3.1018   -0.8906 H   0  0  0  0  0  0  0  0  0  0  0  0
    4.8029    1.0068   -0.1500 H   0  0  0  0  0  0  0  0  0  0  0  0
    1.1840    1.4433    0.5628 H   0  0  0  0  0  0  0  0  0  0  0  0
  1  2  1  0
  2  3  2  0
  3  4  1  0
  4  5  2  0
  5  6  1  0
  6  7  2  0
  7  8  1  0
  8  9  1  0
  9 10  1  0
 11 10  1  1
 11 12  1  0
 11 13  1  0
 13 14  1  0
 14 15  1  0
 15 16  1  0
  8 17  2  0
 17 18  1  0
 18 19  1  0
 19 20  2  0
 19 21  1  0
 21 22  1  0
 22 23  1  0
 22 24  1  0
 24 25  2  0
 25 26  1  0
 26 27  2  0
 27 28  1  0
 28 29  1  0
 28 30  1  0
 28 31  1  0
 27 32  1  0
 32 33  2  0
 18 34  2  0
  5 35  1  0
 35  2  1  0
 34  6  1  0
 16 11  1  0
 33 24  1  0
  1 36  1  0
  1 37  1  0
  1 38  1  0
  3 39  1  0
  7 40  1  0
 10 41  1  0
 10 42  1  0
 12 43  1  0
 12 44  1  0
 12 45  1  0
 13 46  1  0
 13 47  1  0
 14 48  1  0
 14 49  1  0
 16 50  1  0
 16 51  1  0
 17 52  1  0
 21 53  1  0
 22 54  1  1
 23 55  1  0
 23 56  1  0
 23 57  1  0
 25 58  1  0
 33 59  1  0
 34 60  1  0
M  END
$$$$
