@<TRIPOS>MOLECULE
*****
 53 56 0 0 0
SMALL
GASTEIGER

@<TRIPOS>ATOM
      1 C           2.5951   -4.3185    1.4453 C.3     1  UNL1        0.0833
      2 O           2.2749   -3.0591    0.9077 O.3     1  UNL1       -0.4523
      3 C           3.2101   -2.1342    0.4811 C.2     1  UNL1        0.4238
      4 O           4.4233   -2.4608    0.5898 O.2     1  UNL1       -0.2242
      5 N           2.8734   -0.8756   -0.0557 N.am    1  UNL1       -0.1532
      6 N           1.5159   -0.4664   -0.2058 N.am    1  UNL1       -0.2205
      7 C           0.8422    0.2081    0.8376 C.2     1  UNL1        0.2649
      8 O           1.5237    0.4384    1.9103 O.2     1  UNL1       -0.2685
      9 C          -0.5354    0.6726    0.8240 C.ar    1  UNL1        0.0910
     10 C          -1.5927   -0.1020    0.3956 C.ar    1  UNL1        0.1587
     11 O          -1.4780   -1.3907   -0.0584 O.3     1  UNL1       -0.4922
     12 C          -1.3682   -1.7633   -1.4004 C.3     1  UNL1        0.0789
     13 C          -2.9018    0.3961    0.3963 C.ar    1  UNL1        0.1139
     14 C          -4.0256   -0.4305   -0.0617 C.ar    1  UNL1        0.0040
     15 C          -5.0071    0.0299   -0.9111 C.ar    1  UNL1       -0.0524
     16 C          -6.0584   -0.7938   -1.3174 C.ar    1  UNL1       -0.0611
     17 C          -6.1465   -2.0967   -0.8796 C.ar    1  UNL1       -0.0617
     18 C          -5.1686   -2.5610   -0.0310 C.ar    1  UNL1       -0.0611
     19 C          -4.1153   -1.7318    0.3745 C.ar    1  UNL1       -0.0524
     20 N          -3.1412    1.6384    0.8154 N.ar    1  UNL1       -0.2430
     21 C          -2.1404    2.4418    1.2452 C.ar    1  UNL1        0.0726
     22 C          -2.4571    3.7409    1.6604 C.ar    1  UNL1       -0.0357
     23 C          -1.4669    4.5621    2.0804 C.ar    1  UNL1       -0.0597
     24 C          -0.1788    4.1114    2.0918 C.ar    1  UNL1       -0.0611
     25 C           0.1635    2.8148    1.6811 C.ar    1  UNL1       -0.0517
     26 C          -0.8437    1.9812    1.2562 C.ar    1  UNL1        0.0161
     27 C           3.8519    0.0594   -0.4878 C.ar    1  UNL1        0.0593
     28 C           4.2939    0.0466   -1.8122 C.ar    1  UNL1       -0.0385
     29 C           5.2420    0.9284   -2.2859 C.ar    1  UNL1       -0.0599
     30 C           5.7971    1.8752   -1.4418 C.ar    1  UNL1       -0.0616
     31 C           5.3787    1.9063   -0.1382 C.ar    1  UNL1       -0.0599
     32 C           4.4195    1.0083    0.3258 C.ar    1  UNL1       -0.0385
     33 H           2.8424   -5.0141    0.6104 H       1  UNL1        0.0661
     34 H           3.4365   -4.2523    2.1628 H       1  UNL1        0.0661
     35 H           1.6959   -4.7062    1.9933 H       1  UNL1        0.0661
     36 H           1.0425   -0.6487   -1.0953 H       1  UNL1        0.1738
     37 H          -1.2281   -0.8452   -2.0154 H       1  UNL1        0.0660
     38 H          -2.2463   -2.3500   -1.7571 H       1  UNL1        0.0660
     39 H          -0.4864   -2.4548   -1.5088 H       1  UNL1        0.0660
     40 H          -4.9317    1.0486   -1.2489 H       1  UNL1        0.0624
     41 H          -6.8298   -0.4367   -1.9832 H       1  UNL1        0.0618
     42 H          -6.9625   -2.7568   -1.1871 H       1  UNL1        0.0618
     43 H          -5.2460   -3.5885    0.3088 H       1  UNL1        0.0618
     44 H          -3.3894   -2.1487    1.0338 H       1  UNL1        0.0624
     45 H          -3.4833    4.0739    1.6419 H       1  UNL1        0.0639
     46 H          -1.7392    5.5778    2.4021 H       1  UNL1        0.0618
     47 H           0.6158    4.7754    2.4299 H       1  UNL1        0.0618
     48 H           1.2148    2.5432    1.7075 H       1  UNL1        0.0624
     49 H           3.8801   -0.6764   -2.4864 H       1  UNL1        0.0637
     50 H           5.5778    0.9077   -3.3210 H       1  UNL1        0.0618
     51 H           6.5467    2.5759   -1.8067 H       1  UNL1        0.0618
     52 H           5.7841    2.6296    0.5616 H       1  UNL1        0.0618
     53 H           4.1267    1.0707    1.3493 H       1  UNL1        0.0637
@<TRIPOS>BOND
     1     1     2    1
     2     2     3    1
     3     3     4    2
     4     3     5   am
     5     5     6    1
     6     6     7   am
     7     7     8    2
     8     7     9    1
     9     9    10   ar
    10    10    11    1
    11    11    12    1
    12    10    13   ar
    13    13    14    1
    14    14    15   ar
    15    15    16   ar
    16    16    17   ar
    17    17    18   ar
    18    18    19   ar
    19    13    20   ar
    20    20    21   ar
    21    21    22   ar
    22    22    23   ar
    23    23    24   ar
    24    24    25   ar
    25    25    26   ar
    26     5    27    1
    27    27    28   ar
    28    28    29   ar
    29    29    30   ar
    30    30    31   ar
    31    31    32   ar
    32    26     9   ar
    33    32    27   ar
    34    19    14   ar
    35    26    21   ar
    36     1    33    1
    37     1    34    1
    38     1    35    1
    39     6    36    1
    40    12    37    1
    41    12    38    1
    42    12    39    1
    43    15    40    1
    44    16    41    1
    45    17    42    1
    46    18    43    1
    47    19    44    1
    48    22    45    1
    49    23    46    1
    50    24    47    1
    51    25    48    1
    52    28    49    1
    53    29    50    1
    54    30    51    1
    55    31    52    1
    56    32    53    1
