@<TRIPOS>MOLECULE
*****
 21 20 0 0 0
SMALL
GASTEIGER

@<TRIPOS>ATOM
      1 C          -0.6472    1.3104   -1.0969 C.3     1  UNL1       -0.0608
      2 C          -1.0530    0.6235    0.1783 C.3     1  UNL1       -0.0229
      3 C          -2.4226    0.0159    0.0182 C.3     1  UNL1       -0.0608
      4 C          -0.0949   -0.5222    0.5128 C.3     1  UNL1        0.0866
      5 N          -0.1154   -1.4762   -0.5553 N.3     1  UNL1       -0.3197
      6 C           1.2721   -0.0069    0.8122 C.2     1  UNL1        0.2525
      7 O           1.5111    0.8416    1.7162 O.2     1  UNL1       -0.2720
      8 N           2.3998   -0.4584    0.0746 N.am    1  UNL1       -0.1962
      9 O           3.6850   -0.1158    0.1968 O.3     1  UNL1       -0.2951
     10 H           0.3332    0.9171   -1.4049 H       1  UNL1        0.0233
     11 H          -0.5670    2.4005   -0.8811 H       1  UNL1        0.0233
     12 H          -1.3979    1.0999   -1.9117 H       1  UNL1        0.0233
     13 H          -1.0156    1.3175    1.0619 H       1  UNL1        0.0315
     14 H          -3.1273    0.5823    0.6750 H       1  UNL1        0.0233
     15 H          -2.4524   -1.0730    0.2762 H       1  UNL1        0.0233
     16 H          -2.7813    0.1446   -1.0398 H       1  UNL1        0.0233
     17 H          -0.5117   -1.0425    1.4088 H       1  UNL1        0.0557
     18 H           0.3469   -1.1245   -1.4073 H       1  UNL1        0.1189
     19 H           0.3217   -2.3781   -0.2115 H       1  UNL1        0.1189
     20 H           2.2570   -1.1629   -0.6873 H       1  UNL1        0.1822
     21 H           4.0596    0.1073   -0.6730 H       1  UNL1        0.2414
@<TRIPOS>BOND
     1     1     2    1
     2     2     3    1
     3     2     4    1
     4     4     5    1
     5     4     6    1
     6     6     7    2
     7     6     8   am
     8     8     9    1
     9     1    10    1
    10     1    11    1
    11     1    12    1
    12     2    13    1
    13     3    14    1
    14     3    15    1
    15     3    16    1
    16     4    17    1
    17     5    18    1
    18     5    19    1
    19     8    20    1
    20     9    21    1
