
     RDKit          3D

 21 20  0  0  0  0  0  0  0  0999 V2000
   -0.6472    1.3104   -1.0969 C   0  0  0  0  0  0  0  0  0  0  0  0
   -1.0530    0.6235    0.1783 C   0  0  0  0  0  0  0  0  0  0  0  0
   -2.4226    0.0159    0.0182 C   0  0  0  0  0  0  0  0  0  0  0  0
   -0.0949   -0.5222    0.5128 C   0  0  1  0  0  0  0  0  0  0  0  0
   -0.1154   -1.4762   -0.5553 N   0  0  0  0  0  0  0  0  0  0  0  0
    1.2721   -0.0069    0.8122 C   0  0  0  0  0  0  0  0  0  0  0  0
    1.5111    0.8416    1.7162 O   0  0  0  0  0  0  0  0  0  0  0  0
    2.3998   -0.4584    0.0746 N   0  0  0  0  0  0  0  0  0  0  0  0
    3.6850   -0.1158    0.1968 O   0  0  0  0  0  0  0  0  0  0  0  0
    0.3332    0.9171   -1.4049 H   0  0  0  0  0  0  0  0  0  0  0  0
   -0.5670    2.4005   -0.8811 H   0  0  0  0  0  0  0  0  0  0  0  0
   -1.3979    1.0999   -1.9117 H   0  0  0  0  0  0  0  0  0  0  0  0
   -1.0156    1.3175    1.0619 H   0  0  0  0  0  0  0  0  0  0  0  0
   -3.1273    0.5823    0.6750 H   0  0  0  0  0  0  0  0  0  0  0  0
   -2.4524   -1.0730    0.2762 H   0  0  0  0  0  0  0  0  0  0  0  0
   -2.7813    0.1446   -1.0398 H   0  0  0  0  0  0  0  0  0  0  0  0
   -0.5117   -1.0425    1.4088 H   0  0  0  0  0  0  0  0  0  0  0  0
    0.3469   -1.1245   -1.4073 H   0  0  0  0  0  0  0  0  0  0  0  0
    0.3217   -2.3781   -0.2115 H   0  0  0  0  0  0  0  0  0  0  0  0
    2.2570   -1.1629   -0.6873 H   0  0  0  0  0  0  0  0  0  0  0  0
    4.0596    0.1073   -0.6730 H   0  0  0  0  0  0  0  0  0  0  0  0
  1  2  1  0
  2  3  1  0
  2  4  1  0
  4  5  1  0
  4  6  1  0
  6  7  2  0
  6  8  1  0
  8  9  1  0
  1 10  1  0
  1 11  1  0
  1 12  1  0
  2 13  1  0
  3 14  1  0
  3 15  1  0
  3 16  1  0
  4 17  1  1
  5 18  1  0
  5 19  1  0
  8 20  1  0
  9 21  1  0
M  END
$$$$
