@<TRIPOS>MOLECULE
*****
 59 62 0 0 0
SMALL
GASTEIGER

@<TRIPOS>ATOM
      1 C          -3.0740    3.9422    3.2142 C.3     1  UNL1        0.0302
      2 N          -2.7216    3.2131    2.0003 N.ar    1  UNL1       -0.2739
      3 C          -2.8787    1.9005    1.7520 C.ar    1  UNL1        0.0330
      4 C          -2.4158    1.6026    0.4758 C.ar    1  UNL1        0.0228
      5 C          -2.4101    0.3054   -0.1915 C.ar    1  UNL1        0.0253
      6 C          -3.5456   -0.5035   -0.2157 C.ar    1  UNL1       -0.0427
      7 C          -3.6046   -1.7172   -0.8345 C.ar    1  UNL1        0.0203
      8 C          -4.8544   -2.5170   -0.8094 C.3     1  UNL1        0.2830
      9 O          -5.8802   -1.7047   -1.2665 O.3     1  UNL1       -0.3692
     10 C          -4.7410   -3.8022   -1.5744 C.3     1  UNL1        0.4311
     11 F          -5.9892   -4.4320   -1.4523 F       1  UNL1       -0.1669
     12 F          -4.4858   -3.6300   -2.9135 F       1  UNL1       -0.1669
     13 F          -3.8430   -4.6284   -0.9398 F       1  UNL1       -0.1669
     14 C          -5.1611   -2.9077    0.6421 C.3     1  UNL1        0.4311
     15 F          -6.3207   -3.6567    0.7039 F       1  UNL1       -0.1669
     16 F          -5.3780   -1.7990    1.4336 F       1  UNL1       -0.1669
     17 F          -4.1064   -3.6026    1.1971 F       1  UNL1       -0.1669
     18 C          -2.4518   -2.1430   -1.4674 C.ar    1  UNL1        0.0362
     19 N          -1.3507   -1.3865   -1.4584 N.ar    1  UNL1       -0.2393
     20 C          -1.2939   -0.1690   -0.8363 C.ar    1  UNL1        0.1292
     21 N          -0.0910    0.5682   -0.8532 N.pl3   1  UNL1       -0.3122
     22 C           0.6267    0.8412    0.3592 C.3     1  UNL1        0.0280
     23 C           2.0804    0.4723    0.0721 C.3     1  UNL1        0.0363
     24 N           2.5602    1.2689   -1.0136 N.3     1  UNL1       -0.1735
     25 S           3.6726    0.4356   -1.9994 S.O2    1  UNL1        0.0624
     26 O           3.0238   -0.8417   -2.4879 O.2     1  UNL1       -0.1528
     27 O           4.1011    1.2832   -3.1599 O.2     1  UNL1       -0.1528
     28 C           5.0701    0.0027   -1.0057 C.ar    1  UNL1        0.1236
     29 C           5.1384   -1.1910   -0.3287 C.ar    1  UNL1       -0.0306
     30 C           6.2513   -1.4904    0.4401 C.ar    1  UNL1       -0.0202
     31 C           7.3171   -0.6024    0.5469 C.ar    1  UNL1        0.1162
     32 N           8.4258   -0.9723    1.3513 N.pl3   1  UNL1       -0.3431
     33 N           7.2286    0.5448   -0.1163 N.ar    1  UNL1       -0.2388
     34 C           6.1491    0.8677   -0.8795 C.ar    1  UNL1        0.0560
     35 C           1.5712    2.0161   -1.7263 C.3     1  UNL1        0.0363
     36 C           0.4347    1.0539   -2.0979 C.3     1  UNL1        0.0280
     37 C          -1.9740    2.8041   -0.0263 C.ar    1  UNL1        0.0572
     38 N          -2.1776    3.7403    0.9232 N.ar    1  UNL1       -0.1793
     39 H          -2.2624    3.8583    3.9722 H       1  UNL1        0.0473
     40 H          -3.3327    4.9967    3.0001 H       1  UNL1        0.0473
     41 H          -3.9783    3.4958    3.7038 H       1  UNL1        0.0473
     42 H          -3.2961    1.1560    2.4145 H       1  UNL1        0.0832
     43 H          -4.4031   -0.0702    0.3134 H       1  UNL1        0.0629
     44 H          -5.6355   -0.7605   -1.2044 H       1  UNL1        0.2112
     45 H          -2.4755   -3.1044   -1.9654 H       1  UNL1        0.0834
     46 H           0.2690    0.2416    1.2221 H       1  UNL1        0.0477
     47 H           0.6446    1.8835    0.6786 H       1  UNL1        0.0477
     48 H           2.1436   -0.6317   -0.1511 H       1  UNL1        0.0459
     49 H           2.7337    0.6372    0.9482 H       1  UNL1        0.0459
     50 H           4.3228   -1.9042   -0.3921 H       1  UNL1        0.0639
     51 H           6.3178   -2.4264    0.9781 H       1  UNL1        0.0652
     52 H           8.7121   -0.4059    2.1782 H       1  UNL1        0.1437
     53 H           8.9775   -1.8204    1.1301 H       1  UNL1        0.1437
     54 H           6.1096    1.8277   -1.4153 H       1  UNL1        0.0850
     55 H           1.1200    2.8309   -1.1334 H       1  UNL1        0.0459
     56 H           2.0427    2.4036   -2.6601 H       1  UNL1        0.0459
     57 H          -0.2973    1.5150   -2.7641 H       1  UNL1        0.0477
     58 H           0.9335    0.1967   -2.6000 H       1  UNL1        0.0477
     59 H          -1.5483    2.9156   -1.0146 H       1  UNL1        0.0854
@<TRIPOS>BOND
     1     1     2    1
     2     2     3   ar
     3     3     4   ar
     4     4     5    1
     5     5     6   ar
     6     6     7   ar
     7     7     8    1
     8     8     9    1
     9     8    10    1
    10    10    11    1
    11    10    12    1
    12    10    13    1
    13     8    14    1
    14    14    15    1
    15    14    16    1
    16    14    17    1
    17     7    18   ar
    18    18    19   ar
    19    19    20   ar
    20    20    21    1
    21    21    22    1
    22    22    23    1
    23    23    24    1
    24    24    25    1
    25    25    26    2
    26    25    27    2
    27    25    28    1
    28    28    29   ar
    29    29    30   ar
    30    30    31   ar
    31    31    32    1
    32    31    33   ar
    33    33    34   ar
    34    24    35    1
    35    35    36    1
    36     4    37   ar
    37    37    38   ar
    38    38     2   ar
    39    20     5   ar
    40    36    21    1
    41    34    28   ar
    42     1    39    1
    43     1    40    1
    44     1    41    1
    45     3    42    1
    46     6    43    1
    47     9    44    1
    48    18    45    1
    49    22    46    1
    50    22    47    1
    51    23    48    1
    52    23    49    1
    53    29    50    1
    54    30    51    1
    55    32    52    1
    56    32    53    1
    57    34    54    1
    58    35    55    1
    59    35    56    1
    60    36    57    1
    61    36    58    1
    62    37    59    1
