
     RDKit          3D

 59 62  0  0  0  0  0  0  0  0999 V2000
   -3.0740    3.9422    3.2142 C   0  0  0  0  0  0  0  0  0  0  0  0
   -2.7216    3.2131    2.0003 N   0  0  0  0  0  0  0  0  0  0  0  0
   -2.8787    1.9005    1.7520 C   0  0  0  0  0  0  0  0  0  0  0  0
   -2.4158    1.6026    0.4758 C   0  0  0  0  0  0  0  0  0  0  0  0
   -2.4101    0.3054   -0.1915 C   0  0  0  0  0  0  0  0  0  0  0  0
   -3.5456   -0.5035   -0.2157 C   0  0  0  0  0  0  0  0  0  0  0  0
   -3.6046   -1.7172   -0.8345 C   0  0  0  0  0  0  0  0  0  0  0  0
   -4.8544   -2.5170   -0.8094 C   0  0  0  0  0  0  0  0  0  0  0  0
   -5.8802   -1.7047   -1.2665 O   0  0  0  0  0  0  0  0  0  0  0  0
   -4.7410   -3.8022   -1.5744 C   0  0  0  0  0  0  0  0  0  0  0  0
   -5.9892   -4.4320   -1.4523 F   0  0  0  0  0  0  0  0  0  0  0  0
   -4.4858   -3.6300   -2.9135 F   0  0  0  0  0  0  0  0  0  0  0  0
   -3.8430   -4.6284   -0.9398 F   0  0  0  0  0  0  0  0  0  0  0  0
   -5.1611   -2.9077    0.6421 C   0  0  0  0  0  0  0  0  0  0  0  0
   -6.3207   -3.6567    0.7039 F   0  0  0  0  0  0  0  0  0  0  0  0
   -5.3780   -1.7990    1.4336 F   0  0  0  0  0  0  0  0  0  0  0  0
   -4.1064   -3.6026    1.1971 F   0  0  0  0  0  0  0  0  0  0  0  0
   -2.4518   -2.1430   -1.4674 C   0  0  0  0  0  0  0  0  0  0  0  0
   -1.3507   -1.3865   -1.4584 N   0  0  0  0  0  0  0  0  0  0  0  0
   -1.2939   -0.1690   -0.8363 C   0  0  0  0  0  0  0  0  0  0  0  0
   -0.0910    0.5682   -0.8532 N   0  0  0  0  0  0  0  0  0  0  0  0
    0.6267    0.8412    0.3592 C   0  0  0  0  0  0  0  0  0  0  0  0
    2.0804    0.4723    0.0721 C   0  0  0  0  0  0  0  0  0  0  0  0
    2.5602    1.2689   -1.0136 N   0  0  0  0  0  0  0  0  0  0  0  0
    3.6726    0.4356   -1.9994 S   0  0  0  0  0  6  0  0  0  0  0  0
    3.0238   -0.8417   -2.4879 O   0  0  0  0  0  0  0  0  0  0  0  0
    4.1011    1.2832   -3.1599 O   0  0  0  0  0  0  0  0  0  0  0  0
    5.0701    0.0027   -1.0057 C   0  0  0  0  0  0  0  0  0  0  0  0
    5.1384   -1.1910   -0.3287 C   0  0  0  0  0  0  0  0  0  0  0  0
    6.2513   -1.4904    0.4401 C   0  0  0  0  0  0  0  0  0  0  0  0
    7.3171   -0.6024    0.5469 C   0  0  0  0  0  0  0  0  0  0  0  0
    8.4258   -0.9723    1.3513 N   0  0  0  0  0  0  0  0  0  0  0  0
    7.2286    0.5448   -0.1163 N   0  0  0  0  0  0  0  0  0  0  0  0
    6.1491    0.8677   -0.8795 C   0  0  0  0  0  0  0  0  0  0  0  0
    1.5712    2.0161   -1.7263 C   0  0  0  0  0  0  0  0  0  0  0  0
    0.4347    1.0539   -2.0979 C   0  0  0  0  0  0  0  0  0  0  0  0
   -1.9740    2.8041   -0.0263 C   0  0  0  0  0  0  0  0  0  0  0  0
   -2.1776    3.7403    0.9232 N   0  0  0  0  0  0  0  0  0  0  0  0
   -2.2624    3.8583    3.9722 H   0  0  0  0  0  0  0  0  0  0  0  0
   -3.3327    4.9967    3.0001 H   0  0  0  0  0  0  0  0  0  0  0  0
   -3.9783    3.4958    3.7038 H   0  0  0  0  0  0  0  0  0  0  0  0
   -3.2961    1.1560    2.4145 H   0  0  0  0  0  0  0  0  0  0  0  0
   -4.4031   -0.0702    0.3134 H   0  0  0  0  0  0  0  0  0  0  0  0
   -5.6355   -0.7605   -1.2044 H   0  0  0  0  0  0  0  0  0  0  0  0
   -2.4755   -3.1044   -1.9654 H   0  0  0  0  0  0  0  0  0  0  0  0
    0.2690    0.2416    1.2221 H   0  0  0  0  0  0  0  0  0  0  0  0
    0.6446    1.8835    0.6786 H   0  0  0  0  0  0  0  0  0  0  0  0
    2.1436   -0.6317   -0.1511 H   0  0  0  0  0  0  0  0  0  0  0  0
    2.7337    0.6372    0.9482 H   0  0  0  0  0  0  0  0  0  0  0  0
    4.3228   -1.9042   -0.3921 H   0  0  0  0  0  0  0  0  0  0  0  0
    6.3178   -2.4264    0.9781 H   0  0  0  0  0  0  0  0  0  0  0  0
    8.7121   -0.4059    2.1782 H   0  0  0  0  0  0  0  0  0  0  0  0
    8.9775   -1.8204    1.1301 H   0  0  0  0  0  0  0  0  0  0  0  0
    6.1096    1.8277   -1.4153 H   0  0  0  0  0  0  0  0  0  0  0  0
    1.1200    2.8309   -1.1334 H   0  0  0  0  0  0  0  0  0  0  0  0
    2.0427    2.4036   -2.6601 H   0  0  0  0  0  0  0  0  0  0  0  0
   -0.2973    1.5150   -2.7641 H   0  0  0  0  0  0  0  0  0  0  0  0
    0.9335    0.1967   -2.6000 H   0  0  0  0  0  0  0  0  0  0  0  0
   -1.5483    2.9156   -1.0146 H   0  0  0  0  0  0  0  0  0  0  0  0
  1  2  1  0
  2  3  1  0
  3  4  2  0
  4  5  1  0
  5  6  2  0
  6  7  1  0
  7  8  1  0
  8  9  1  0
  8 10  1  0
 10 11  1  0
 10 12  1  0
 10 13  1  0
  8 14  1  0
 14 15  1  0
 14 16  1  0
 14 17  1  0
  7 18  2  0
 18 19  1  0
 19 20  2  0
 20 21  1  0
 21 22  1  0
 22 23  1  0
 23 24  1  0
 24 25  1  0
 25 26  2  0
 25 27  2  0
 25 28  1  0
 28 29  2  0
 29 30  1  0
 30 31  2  0
 31 32  1  0
 31 33  1  0
 33 34  2  0
 24 35  1  0
 35 36  1  0
  4 37  1  0
 37 38  2  0
 38  2  1  0
 20  5  1  0
 36 21  1  0
 34 28  1  0
  1 39  1  0
  1 40  1  0
  1 41  1  0
  3 42  1  0
  6 43  1  0
  9 44  1  0
 18 45  1  0
 22 46  1  0
 22 47  1  0
 23 48  1  0
 23 49  1  0
 29 50  1  0
 30 51  1  0
 32 52  1  0
 32 53  1  0
 34 54  1  0
 35 55  1  0
 35 56  1  0
 36 57  1  0
 36 58  1  0
 37 59  1  0
M  END
$$$$
