@<TRIPOS>MOLECULE
*****
 81 80 0 0 0
SMALL
GASTEIGER

@<TRIPOS>ATOM
      1 O           1.8321   -0.0820    1.0607 O.3     1  UNL1       -0.3890
      2 C           1.1835   -0.7281   -0.0027 C.3     1  UNL1        0.0939
      3 C          -0.0920    0.0535   -0.2453 C.3     1  UNL1        0.0569
      4 N           0.2661    1.4178   -0.5831 N.4     1  UNL1        0.2279
      5 C          -0.8714   -0.5054   -1.4009 C.3     1  UNL1        0.0939
      6 O          -1.2858   -1.8032   -1.2304 O.3     1  UNL1       -0.3890
      7 C          -0.8853    0.0787    1.0346 C.3     1  UNL1        0.0939
      8 O          -0.0934    0.6370    2.0277 O.3     1  UNL1       -0.3890
      9 C          -7.1297    0.9565   -0.5839 C.3     2  UNL2       -0.0653
     10 C          -7.2705   -0.1333    0.4292 C.3     2  UNL2       -0.0559
     11 C          -6.0475   -0.7420    0.9655 C.3     2  UNL2       -0.0532
     12 C          -5.0909   -1.4585    0.1497 C.3     2  UNL2       -0.0502
     13 C          -4.3064   -0.9409   -0.9544 C.3     2  UNL2       -0.0206
     14 C          -3.3266    0.1444   -0.7813 C.3     2  UNL2        0.0814
     15 O          -2.7592    0.3392   -2.0893 O.3     2  UNL2       -0.3848
     16 C          -3.7947    1.4750   -0.3120 C.3     2  UNL2       -0.0324
     17 C          -2.1125   -0.2825    0.0143 C.2     2  UNL2       -0.0567
     18 C          -0.9573    0.3634   -0.1163 C.2     2  UNL2       -0.0794
     19 C           0.3059    0.1105    0.5501 C.3     2  UNL2        0.0087
     20 C           0.4190   -1.0080    1.4900 C.3     2  UNL2        0.0641
     21 O          -0.5415   -1.1745    2.4382 O.3     2  UNL2       -0.3911
     22 C           0.6993   -2.2074    0.6166 C.3     2  UNL2        0.0001
     23 C           1.8242   -1.6193   -0.2475 C.3     2  UNL2        0.0613
     24 O           2.9806   -1.5823    0.5467 O.3     2  UNL2       -0.3914
     25 C           1.3619   -0.2015   -0.5076 C.3     2  UNL2       -0.0029
     26 C           2.4751    0.7784   -0.3420 C.3     2  UNL2       -0.0290
     27 C           3.5852    0.6182   -1.2897 C.2     2  UNL2       -0.0876
     28 C           4.8948    0.3732   -1.2286 C.2     2  UNL2       -0.0879
     29 C           5.6680    0.1706    0.0293 C.3     2  UNL2       -0.0344
     30 C           6.7559    1.1779    0.1959 C.3     2  UNL2       -0.0445
     31 C           7.7283    1.1014   -0.9435 C.3     2  UNL2       -0.0129
     32 C           8.7821    2.1400   -0.6991 C.2     2  UNL2        0.0418
     33 O           8.5575    2.7667    0.3673 O.co2   2  UNL2       -0.5498
     34 O           9.7788    2.2196   -1.6588 O.co2   2  UNL2       -0.5498
     35 H           2.8006   -0.3307    0.9734 H       1  UNL1        0.2097
     36 H           1.8586   -0.6967   -0.8846 H       1  UNL1        0.0618
     37 H           0.9759   -1.7588    0.3440 H       1  UNL1        0.0618
     38 H           1.3019    1.5588   -0.5878 H       1  UNL1        0.2002
     39 H          -0.1530    1.7427   -1.4957 H       1  UNL1        0.2002
     40 H          -0.0928    2.1038    0.1196 H       1  UNL1        0.2002
     41 H          -1.7392    0.1771   -1.5735 H       1  UNL1        0.0618
     42 H          -0.2050   -0.4672   -2.2913 H       1  UNL1        0.0618
     43 H          -1.1892   -2.1511   -0.3208 H       1  UNL1        0.2097
     44 H          -1.7227    0.7784    0.8886 H       1  UNL1        0.0618
     45 H          -1.2019   -0.9234    1.3665 H       1  UNL1        0.0618
     46 H          -0.6869    0.8987    2.8010 H       1  UNL1        0.2097
     47 H          -6.6391    1.8351   -0.0639 H       2  UNL2        0.0230
     48 H          -6.5251    0.7357   -1.4656 H       2  UNL2        0.0230
     49 H          -8.1561    1.3099   -0.8703 H       2  UNL2        0.0230
     50 H          -8.0381   -0.8931    0.0980 H       2  UNL2        0.0263
     51 H          -7.8222    0.3657    1.2964 H       2  UNL2        0.0263
     52 H          -6.4138   -1.5240    1.7473 H       2  UNL2        0.0265
     53 H          -5.5874    0.0085    1.6888 H       2  UNL2        0.0265
     54 H          -5.6303   -2.4116   -0.2376 H       2  UNL2        0.0266
     55 H          -4.3473   -1.9651    0.8745 H       2  UNL2        0.0266
     56 H          -4.8661   -0.7668   -1.9251 H       2  UNL2        0.0296
     57 H          -3.6496   -1.8441   -1.2987 H       2  UNL2        0.0296
     58 H          -2.5148   -0.5887   -2.3424 H       2  UNL2        0.2106
     59 H          -4.4772    1.9108   -1.0710 H       2  UNL2        0.0260
     60 H          -2.8651    2.1421   -0.3494 H       2  UNL2        0.0260
     61 H          -4.1247    1.5015    0.7160 H       2  UNL2        0.0260
     62 H          -2.1045   -1.0944    0.7022 H       2  UNL2        0.0597
     63 H          -0.8706    1.2194   -0.8075 H       2  UNL2        0.0574
     64 H           0.5609    1.0535    1.1176 H       2  UNL2        0.0372
     65 H           1.3833   -0.8497    2.0578 H       2  UNL2        0.0600
     66 H          -0.3892   -0.7725    3.3156 H       2  UNL2        0.2098
     67 H           1.1528   -3.0015    1.2312 H       2  UNL2        0.0315
     68 H          -0.1473   -2.5268   -0.0002 H       2  UNL2        0.0315
     69 H           2.0183   -2.2044   -1.1500 H       2  UNL2        0.0597
     70 H           2.9340   -2.2845    1.2540 H       2  UNL2        0.2098
     71 H           0.9278   -0.1634   -1.5319 H       2  UNL2        0.0335
     72 H           2.1117    1.8060   -0.3443 H       2  UNL2        0.0311
     73 H           2.9062    0.5893    0.6838 H       2  UNL2        0.0311
     74 H           3.1052    0.7537   -2.2758 H       2  UNL2        0.0569
     75 H           5.4237    0.3198   -2.1637 H       2  UNL2        0.0569
     76 H           6.0929   -0.8464    0.0819 H       2  UNL2        0.0307
     77 H           4.9882    0.2804    0.9212 H       2  UNL2        0.0307
     78 H           6.3479    2.1992    0.3306 H       2  UNL2        0.0272
     79 H           7.2908    0.9140    1.1457 H       2  UNL2        0.0272
     80 H           8.2454    0.1208   -0.9099 H       2  UNL2        0.0325
     81 H           7.1998    1.2872   -1.8968 H       2  UNL2        0.0325
@<TRIPOS>UNITY_ATOM_ATTR
4 1
charge 1
34 1
charge -1
@<TRIPOS>BOND
     1     1     2    1
     2     2     3    1
     3     3     4    1
     4     3     5    1
     5     5     6    1
     6     3     7    1
     7     7     8    1
     8     9    10    1
     9    10    11    1
    10    11    12    1
    11    12    13    1
    12    13    14    1
    13    14    15    1
    14    14    16    1
    15    14    17    1
    16    17    18    2
    17    18    19    1
    18    19    20    1
    19    20    21    1
    20    20    22    1
    21    22    23    1
    22    23    24    1
    23    23    25    1
    24    25    26    1
    25    26    27    1
    26    27    28    2
    27    28    29    1
    28    29    30    1
    29    30    31    1
    30    31    32    1
    31    32    33   ar
    32    32    34   ar
    33    25    19    1
    34     1    35    1
    35     2    36    1
    36     2    37    1
    37     4    38    1
    38     4    39    1
    39     4    40    1
    40     5    41    1
    41     5    42    1
    42     6    43    1
    43     7    44    1
    44     7    45    1
    45     8    46    1
    46     9    47    1
    47     9    48    1
    48     9    49    1
    49    10    50    1
    50    10    51    1
    51    11    52    1
    52    11    53    1
    53    12    54    1
    54    12    55    1
    55    13    56    1
    56    13    57    1
    57    15    58    1
    58    16    59    1
    59    16    60    1
    60    16    61    1
    61    17    62    1
    62    18    63    1
    63    19    64    1
    64    20    65    1
    65    21    66    1
    66    22    67    1
    67    22    68    1
    68    23    69    1
    69    24    70    1
    70    25    71    1
    71    26    72    1
    72    26    73    1
    73    27    74    1
    74    28    75    1
    75    29    76    1
    76    29    77    1
    77    30    78    1
    78    30    79    1
    79    31    80    1
    80    31    81    1
