@<TRIPOS>MOLECULE
*****
 39 40 0 0 0
SMALL
GASTEIGER

@<TRIPOS>ATOM
      1 C          -3.1569    3.1483   -2.5556 C.3     1  UNL1        0.1072
      2 O          -2.8205    1.9576   -1.8701 O.2     1  UNL1       -0.3965
      3 N          -3.6934    1.2094   -1.1623 N.2     1  UNL1       -0.0790
      4 C          -3.2822    0.4591   -0.2081 C.2     1  UNL1        0.1776
      5 C          -1.8628    0.4251    0.1010 C.2     1  UNL1        0.2672
      6 O          -1.0088    1.1015   -0.5267 O.2     1  UNL1       -0.2684
      7 N          -1.3608   -0.3980    1.1575 N.am    1  UNL1       -0.2978
      8 C           0.0555   -0.4247    1.4575 C.3     1  UNL1        0.1250
      9 P           1.0284   -0.9830    0.0369 P.3     1  UNL1        0.3960
     10 O           0.0513   -1.3678   -1.0616 O.2     1  UNL1       -0.2426
     11 O           1.8371   -2.3906    0.4951 O.3     1  UNL1       -0.3141
     12 O           2.0542    0.2095   -0.5739 O.3     1  UNL1       -0.4229
     13 C           3.4278    0.1704   -0.5614 C.ar    1  UNL1        0.1327
     14 C           4.0965    1.3709   -0.3793 C.ar    1  UNL1       -0.0181
     15 C           5.4651    1.4064   -0.3561 C.ar    1  UNL1       -0.0381
     16 C           6.2312    0.2588   -0.5114 C.ar    1  UNL1        0.0871
     17 C           7.6416    0.3908   -0.4737 C.1     1  UNL1        0.1020
     18 N           8.7959    0.5064   -0.4241 N.1     1  UNL1       -0.1908
     19 C           5.5817   -0.9424   -0.6933 C.ar    1  UNL1        0.1442
     20 F           6.3168   -2.0649   -0.8454 F       1  UNL1       -0.2040
     21 C           4.1880   -0.9560   -0.7137 C.ar    1  UNL1        0.0170
     22 C          -4.2419   -0.3261    0.5265 C.ar    1  UNL1        0.0458
     23 C          -4.7326   -1.5808    0.3121 C.ar    1  UNL1       -0.0452
     24 C          -5.6277   -2.0935    1.1489 C.ar    1  UNL1       -0.0541
     25 C          -6.0528   -1.3653    2.2182 C.ar    1  UNL1       -0.0237
     26 S          -5.0980    0.1888    2.0219 S.2     1  UNL1       -0.0949
     27 H          -4.0304    2.9735   -3.2433 H       1  UNL1        0.0687
     28 H          -2.2545    3.4736   -3.1130 H       1  UNL1        0.0687
     29 H          -3.4405    3.9651   -1.8915 H       1  UNL1        0.0687
     30 H          -2.0081   -0.9874    1.7228 H       1  UNL1        0.1497
     31 H           0.2484   -1.0092    2.3599 H       1  UNL1        0.0599
     32 H           0.3767    0.6339    1.6580 H       1  UNL1        0.0599
     33 H           1.1821   -2.9288    1.0266 H       1  UNL1        0.2208
     34 H           3.5599    2.2924   -0.2536 H       1  UNL1        0.0655
     35 H           5.9707    2.3726   -0.2100 H       1  UNL1        0.0632
     36 H           3.6802   -1.9011   -0.8567 H       1  UNL1        0.0683
     37 H          -4.3323   -2.1292   -0.5997 H       1  UNL1        0.0629
     38 H          -6.0496   -3.1189    1.0016 H       1  UNL1        0.0623
     39 H          -6.7351   -1.5463    3.0012 H       1  UNL1        0.0693
@<TRIPOS>BOND
     1     1     2    1
     2     2     3    1
     3     3     4    2
     4     4     5    1
     5     5     6    2
     6     5     7   am
     7     7     8    1
     8     8     9    1
     9     9    10    2
    10     9    11    1
    11     9    12    1
    12    12    13    1
    13    13    14   ar
    14    14    15   ar
    15    15    16   ar
    16    16    17    1
    17    17    18    3
    18    16    19   ar
    19    19    20    1
    20    19    21   ar
    21     4    22    1
    22    22    23   ar
    23    23    24   ar
    24    24    25   ar
    25    25    26   ar
    26    21    13   ar
    27    26    22   ar
    28     1    27    1
    29     1    28    1
    30     1    29    1
    31     7    30    1
    32     8    31    1
    33     8    32    1
    34    11    33    1
    35    14    34    1
    36    15    35    1
    37    21    36    1
    38    23    37    1
    39    24    38    1
    40    25    39    1
