
     RDKit          3D

  9  8  0  0  0  0  0  0  0  0999 V2000
   -1.1431    0.2838    0.0641 C   0  0  0  0  0  0  0  0  0  0  0  0
    0.5179   -0.3913    0.2206 P   0  0  0  0  0  0  0  0  0  0  0  0
    1.7233    0.7334   -0.0945 O   0  0  0  0  0  0  0  0  0  0  0  0
    0.6299   -1.5558   -0.7584 O   0  0  0  0  0  0  0  0  0  0  0  0
   -1.8421   -0.5310   -0.2372 H   0  0  0  0  0  0  0  0  0  0  0  0
   -1.1879    1.0900   -0.7032 H   0  0  0  0  0  0  0  0  0  0  0  0
   -1.4645    0.6402    1.0532 H   0  0  0  0  0  0  0  0  0  0  0  0
    0.7595   -0.9109    1.4924 H   0  0  0  0  0  0  0  0  0  0  0  0
    2.0069    0.6417   -1.0369 H   0  0  0  0  0  0  0  0  0  0  0  0
  1  2  1  0
  2  3  1  0
  2  4  2  0
  1  5  1  0
  1  6  1  0
  1  7  1  0
  2  8  1  0
  3  9  1  0
M  END
$$$$
