
     RDKit          3D

 57 59  0  0  0  0  0  0  0  0999 V2000
    9.4924   -0.3929   -3.4284 C   0  0  0  0  0  0  0  0  0  0  0  0
    8.3110    0.3021   -3.1053 O   0  0  0  0  0  0  0  0  0  0  0  0
    7.6954   -0.0027   -1.8825 C   0  0  0  0  0  0  0  0  0  0  0  0
    6.5497    0.6483   -1.5343 C   0  0  0  0  0  0  0  0  0  0  0  0
    5.9284    0.3568   -0.3282 C   0  0  0  0  0  0  0  0  0  0  0  0
    6.4566   -0.5864    0.5288 C   0  0  0  0  0  0  0  0  0  0  0  0
    5.7892   -0.8876    1.8244 C   0  0  0  0  0  0  0  0  0  0  0  0
    4.5095   -0.6867    1.9073 O   0  0  0  0  0  0  0  0  0  0  0  0
    3.2537   -0.4831    1.9873 C   0  0  0  0  0  0  0  0  0  0  0  0
    2.3196   -1.4836    2.2930 C   0  0  0  0  0  0  0  0  0  0  0  0
    1.0112   -1.2067    2.3603 N   0  0  0  0  0  0  0  0  0  0  0  0
    0.5136   -0.0111    2.1519 N   0  0  0  0  0  0  0  0  0  0  0  0
   -0.9491    0.2207    2.2387 C   0  0  0  0  0  0  0  0  0  0  0  0
   -1.5132    0.0226    0.9172 C   0  0  0  0  0  0  0  0  0  0  0  0
   -0.6914   -0.4606    0.0416 O   0  0  0  0  0  0  0  0  0  0  0  0
   -2.8565    0.2869    0.4305 C   0  0  0  0  0  0  0  0  0  0  0  0
   -3.1486   -0.0152   -0.9184 C   0  0  0  0  0  0  0  0  0  0  0  0
   -4.3823    0.2052   -1.4696 C   0  0  0  0  0  0  0  0  0  0  0  0
   -5.3944    0.7357   -0.7222 C   0  0  0  0  0  0  0  0  0  0  0  0
   -6.7127    0.9710   -1.3356 C   0  0  0  0  0  0  0  0  0  0  0  0
   -7.6129   -0.1245   -1.2270 N   0  0  0  0  0  0  0  0  0  0  0  0
   -8.8691    0.0657   -1.8673 C   0  0  0  0  0  0  0  0  0  0  0  0
   -7.0633   -1.4297   -1.3583 C   0  0  0  0  0  0  0  0  0  0  0  0
   -5.1348    1.0366    0.5896 C   0  0  0  0  0  0  0  0  0  0  0  0
   -3.8788    0.8192    1.1771 C   0  0  0  0  0  0  0  0  0  0  0  0
   -3.6638    1.1690    2.6068 C   0  0  0  0  0  0  0  0  0  0  0  0
    1.3406    0.9998    1.8547 C   0  0  0  0  0  0  0  0  0  0  0  0
    0.8356    2.1407    1.6585 O   0  0  0  0  0  0  0  0  0  0  0  0
    2.6969    0.7872    1.7686 C   0  0  0  0  0  0  0  0  0  0  0  0
    7.5809   -1.2129    0.1691 N   0  0  0  0  0  0  0  0  0  0  0  0
    8.2007   -0.9399   -1.0086 C   0  0  0  0  0  0  0  0  0  0  0  0
    9.2864   -1.4876   -3.5255 H   0  0  0  0  0  0  0  0  0  0  0  0
    9.8973   -0.0221   -4.3937 H   0  0  0  0  0  0  0  0  0  0  0  0
   10.2187   -0.2514   -2.6078 H   0  0  0  0  0  0  0  0  0  0  0  0
    6.1601    1.3915   -2.2365 H   0  0  0  0  0  0  0  0  0  0  0  0
    5.0349    0.8930   -0.1002 H   0  0  0  0  0  0  0  0  0  0  0  0
    6.0606   -1.9614    2.1341 H   0  0  0  0  0  0  0  0  0  0  0  0
    6.3375   -0.3054    2.6518 H   0  0  0  0  0  0  0  0  0  0  0  0
    2.7477   -2.4626    2.4622 H   0  0  0  0  0  0  0  0  0  0  0  0
   -1.3317   -0.6022    2.9292 H   0  0  0  0  0  0  0  0  0  0  0  0
   -1.0751    1.1782    2.7219 H   0  0  0  0  0  0  0  0  0  0  0  0
   -2.3730   -0.4343   -1.5418 H   0  0  0  0  0  0  0  0  0  0  0  0
   -4.5530   -0.0545   -2.5338 H   0  0  0  0  0  0  0  0  0  0  0  0
   -7.2216    1.8420   -0.8201 H   0  0  0  0  0  0  0  0  0  0  0  0
   -6.6210    1.2524   -2.4038 H   0  0  0  0  0  0  0  0  0  0  0  0
   -9.1455   -0.9250   -2.3367 H   0  0  0  0  0  0  0  0  0  0  0  0
   -9.7057    0.3386   -1.2280 H   0  0  0  0  0  0  0  0  0  0  0  0
   -8.7570    0.7540   -2.7463 H   0  0  0  0  0  0  0  0  0  0  0  0
   -7.1252   -1.7650   -2.4188 H   0  0  0  0  0  0  0  0  0  0  0  0
   -7.7535   -2.1397   -0.8108 H   0  0  0  0  0  0  0  0  0  0  0  0
   -6.0812   -1.5662   -0.9029 H   0  0  0  0  0  0  0  0  0  0  0  0
   -5.8899    1.4612    1.2396 H   0  0  0  0  0  0  0  0  0  0  0  0
   -4.7178    1.3725    3.0131 H   0  0  0  0  0  0  0  0  0  0  0  0
   -3.1776    2.1591    2.7453 H   0  0  0  0  0  0  0  0  0  0  0  0
   -3.3095    0.3639    3.2392 H   0  0  0  0  0  0  0  0  0  0  0  0
    3.3722    1.5781    1.5289 H   0  0  0  0  0  0  0  0  0  0  0  0
    9.1083   -1.4512   -1.2968 H   0  0  0  0  0  0  0  0  0  0  0  0
  1  2  1  0
  2  3  1  0
  3  4  2  0
  4  5  1  0
  5  6  2  0
  6  7  1  0
  7  8  1  0
  8  9  1  0
  9 10  1  0
 10 11  2  0
 11 12  1  0
 12 13  1  0
 13 14  1  0
 14 15  2  0
 14 16  1  0
 16 17  2  0
 17 18  1  0
 18 19  2  0
 19 20  1  0
 20 21  1  0
 21 22  1  0
 21 23  1  0
 19 24  1  0
 24 25  2  0
 25 26  1  0
 12 27  1  0
 27 28  2  0
 27 29  1  0
  6 30  1  0
 30 31  2  0
 31  3  1  0
 29  9  2  0
 25 16  1  0
  1 32  1  0
  1 33  1  0
  1 34  1  0
  4 35  1  0
  5 36  1  0
  7 37  1  0
  7 38  1  0
 10 39  1  0
 13 40  1  0
 13 41  1  0
 17 42  1  0
 18 43  1  0
 20 44  1  0
 20 45  1  0
 22 46  1  0
 22 47  1  0
 22 48  1  0
 23 49  1  0
 23 50  1  0
 23 51  1  0
 24 52  1  0
 26 53  1  0
 26 54  1  0
 26 55  1  0
 29 56  1  0
 31 57  1  0
M  END
$$$$
