@<TRIPOS>MOLECULE
*****
 57 59 0 0 0
SMALL
GASTEIGER

@<TRIPOS>ATOM
      1 C           9.4924   -0.3929   -3.4284 C.3     1  UNL1        0.0789
      2 O           8.3110    0.3021   -3.1053 O.3     1  UNL1       -0.4936
      3 C           7.6954   -0.0027   -1.8825 C.ar    1  UNL1        0.1381
      4 C           6.5497    0.6483   -1.5343 C.ar    1  UNL1       -0.0166
      5 C           5.9284    0.3568   -0.3282 C.ar    1  UNL1       -0.0336
      6 C           6.4566   -0.5864    0.5288 C.ar    1  UNL1        0.0787
      7 C           5.7892   -0.8876    1.8244 C.3     1  UNL1        0.1314
      8 O           4.5095   -0.6867    1.9073 O.3     1  UNL1       -0.4841
      9 C           3.2537   -0.4831    1.9873 C.ar    1  UNL1        0.1459
     10 C           2.3196   -1.4836    2.2930 C.ar    1  UNL1        0.0898
     11 N           1.0112   -1.2067    2.3603 N.ar    1  UNL1       -0.1726
     12 N           0.5136   -0.0111    2.1519 N.ar    1  UNL1       -0.2217
     13 C          -0.9491    0.2207    2.2387 C.3     1  UNL1        0.1079
     14 C          -1.5132    0.0226    0.9172 C.2     1  UNL1        0.1847
     15 O          -0.6914   -0.4606    0.0416 O.2     1  UNL1       -0.2901
     16 C          -2.8565    0.2869    0.4305 C.ar    1  UNL1        0.0222
     17 C          -3.1486   -0.0152   -0.9184 C.ar    1  UNL1       -0.0507
     18 C          -4.3823    0.2052   -1.4696 C.ar    1  UNL1       -0.0567
     19 C          -5.3944    0.7357   -0.7222 C.ar    1  UNL1       -0.0331
     20 C          -6.7127    0.9710   -1.3356 C.3     1  UNL1        0.0235
     21 N          -7.6129   -0.1245   -1.2270 N.3     1  UNL1       -0.3042
     22 C          -8.8691    0.0657   -1.8673 C.3     1  UNL1       -0.0127
     23 C          -7.0633   -1.4297   -1.3583 C.3     1  UNL1       -0.0127
     24 C          -5.1348    1.0366    0.5896 C.ar    1  UNL1       -0.0538
     25 C          -3.8788    0.8192    1.1771 C.ar    1  UNL1       -0.0396
     26 C          -3.6638    1.1690    2.6068 C.3     1  UNL1       -0.0390
     27 C           1.3406    0.9998    1.8547 C.ar    1  UNL1        0.2711
     28 O           0.8356    2.1407    1.6585 O.2     1  UNL1       -0.2661
     29 C           2.6969    0.7872    1.7686 C.ar    1  UNL1        0.0476
     30 N           7.5809   -1.2129    0.1691 N.ar    1  UNL1       -0.2528
     31 C           8.2007   -0.9399   -1.0086 C.ar    1  UNL1        0.0696
     32 H           9.2864   -1.4876   -3.5255 H       1  UNL1        0.0660
     33 H           9.8973   -0.0221   -4.3937 H       1  UNL1        0.0660
     34 H          10.2187   -0.2514   -2.6078 H       1  UNL1        0.0660
     35 H           6.1601    1.3915   -2.2365 H       1  UNL1        0.0655
     36 H           5.0349    0.8930   -0.1002 H       1  UNL1        0.0638
     37 H           6.0606   -1.9614    2.1341 H       1  UNL1        0.0763
     38 H           6.3375   -0.3054    2.6518 H       1  UNL1        0.0763
     39 H           2.7477   -2.4626    2.4622 H       1  UNL1        0.0885
     40 H          -1.3317   -0.6022    2.9292 H       1  UNL1        0.0593
     41 H          -1.0751    1.1782    2.7219 H       1  UNL1        0.0593
     42 H          -2.3730   -0.4343   -1.5418 H       1  UNL1        0.0625
     43 H          -4.5530   -0.0545   -2.5338 H       1  UNL1        0.0621
     44 H          -7.2216    1.8420   -0.8201 H       1  UNL1        0.0475
     45 H          -6.6210    1.2524   -2.4038 H       1  UNL1        0.0475
     46 H          -9.1455   -0.9250   -2.3367 H       1  UNL1        0.0391
     47 H          -9.7057    0.3386   -1.2280 H       1  UNL1        0.0391
     48 H          -8.7570    0.7540   -2.7463 H       1  UNL1        0.0391
     49 H          -7.1252   -1.7650   -2.4188 H       1  UNL1        0.0391
     50 H          -7.7535   -2.1397   -0.8108 H       1  UNL1        0.0391
     51 H          -6.0812   -1.5662   -0.9029 H       1  UNL1        0.0391
     52 H          -5.8899    1.4612    1.2396 H       1  UNL1        0.0624
     53 H          -4.7178    1.3725    3.0131 H       1  UNL1        0.0278
     54 H          -3.1776    2.1591    2.7453 H       1  UNL1        0.0278
     55 H          -3.3095    0.3639    3.2392 H       1  UNL1        0.0278
     56 H           3.3722    1.5781    1.5289 H       1  UNL1        0.0710
     57 H           9.1083   -1.4512   -1.2968 H       1  UNL1        0.0867
@<TRIPOS>BOND
     1     1     2    1
     2     2     3    1
     3     3     4   ar
     4     4     5   ar
     5     5     6   ar
     6     6     7    1
     7     7     8    1
     8     8     9    1
     9     9    10   ar
    10    10    11   ar
    11    11    12   ar
    12    12    13    1
    13    13    14    1
    14    14    15    2
    15    14    16    1
    16    16    17   ar
    17    17    18   ar
    18    18    19   ar
    19    19    20    1
    20    20    21    1
    21    21    22    1
    22    21    23    1
    23    19    24   ar
    24    24    25   ar
    25    25    26    1
    26    12    27   ar
    27    27    28    2
    28    27    29   ar
    29     6    30   ar
    30    30    31   ar
    31    31     3   ar
    32    29     9   ar
    33    25    16   ar
    34     1    32    1
    35     1    33    1
    36     1    34    1
    37     4    35    1
    38     5    36    1
    39     7    37    1
    40     7    38    1
    41    10    39    1
    42    13    40    1
    43    13    41    1
    44    17    42    1
    45    18    43    1
    46    20    44    1
    47    20    45    1
    48    22    46    1
    49    22    47    1
    50    22    48    1
    51    23    49    1
    52    23    50    1
    53    23    51    1
    54    24    52    1
    55    26    53    1
    56    26    54    1
    57    26    55    1
    58    29    56    1
    59    31    57    1
