
     RDKit          3D

 48 50  0  0  0  0  0  0  0  0999 V2000
    6.2449   -0.6376    2.6912 C   0  0  0  0  0  0  0  0  0  0  0  0
    5.2791   -0.2025    1.6380 C   0  0  0  0  0  0  0  0  0  0  0  0
    5.6217    0.8334    0.7850 C   0  0  0  0  0  0  0  0  0  0  0  0
    4.7398    1.2440   -0.1904 C   0  0  0  0  0  0  0  0  0  0  0  0
    3.5313    0.6061   -0.2899 C   0  0  0  0  0  0  0  0  0  0  0  0
    3.1963   -0.4180    0.5556 C   0  0  0  0  0  0  0  0  0  0  0  0
    1.9552   -1.0616    0.4391 N   0  0  0  0  0  0  0  0  0  0  0  0
    1.0124   -0.8545   -0.6044 C   0  0  0  0  0  0  0  0  0  0  0  0
   -0.2062   -0.2621   -0.2387 C   0  0  0  0  0  0  0  0  0  0  0  0
   -1.1412   -0.0433   -1.2117 C   0  0  0  0  0  0  0  0  0  0  0  0
   -2.4077    0.5532   -0.9164 N   0  0  0  0  0  0  0  0  0  0  0  0
   -2.7538    0.9272    0.4123 C   0  0  2  0  0  0  0  0  0  0  0  0
   -2.8286   -0.2665    1.3194 C   0  0  0  0  0  0  0  0  0  0  0  0
   -4.2487   -0.5640    1.7546 C   0  0  0  0  0  0  0  0  0  0  0  0
   -5.2412   -0.4360    0.6420 C   0  0  0  0  0  0  0  0  0  0  0  0
   -5.1886    0.9012   -0.0601 C   0  0  0  0  0  0  0  0  0  0  0  0
   -4.0408    1.6884    0.5037 C   0  0  2  0  0  0  0  0  0  0  0  0
   -3.9686    2.9778   -0.1598 N   0  0  0  0  0  0  0  0  0  0  0  0
   -0.8360   -0.4123   -2.4776 N   0  0  0  0  0  0  0  0  0  0  0  0
    0.3084   -0.9663   -2.8021 N   0  0  0  0  0  0  0  0  0  0  0  0
    1.2941   -1.2189   -1.8846 C   0  0  0  0  0  0  0  0  0  0  0  0
    2.5088   -1.8925   -2.2581 C   0  0  0  0  0  0  0  0  0  0  0  0
    2.7412   -2.1275   -3.6563 N   0  0  0  0  0  0  0  0  0  0  0  0
    3.3643   -2.2810   -1.4474 O   0  0  0  0  0  0  0  0  0  0  0  0
    4.0781   -0.7914    1.4927 N   0  0  0  0  0  0  0  0  0  0  0  0
    5.9967   -1.6301    3.0823 H   0  0  0  0  0  0  0  0  0  0  0  0
    6.3203    0.1350    3.5013 H   0  0  0  0  0  0  0  0  0  0  0  0
    7.2680   -0.6869    2.2414 H   0  0  0  0  0  0  0  0  0  0  0  0
    6.5635    1.3117    0.8827 H   0  0  0  0  0  0  0  0  0  0  0  0
    5.0076    2.0728   -0.8764 H   0  0  0  0  0  0  0  0  0  0  0  0
    2.8394    0.9470   -1.0744 H   0  0  0  0  0  0  0  0  0  0  0  0
    1.6956   -1.7648    1.1951 H   0  0  0  0  0  0  0  0  0  0  0  0
   -0.3769    0.0103    0.7947 H   0  0  0  0  0  0  0  0  0  0  0  0
   -3.0834    0.7151   -1.6918 H   0  0  0  0  0  0  0  0  0  0  0  0
   -1.9311    1.6259    0.7660 H   0  0  0  0  0  0  0  0  0  0  0  0
   -2.2425   -0.1391    2.2533 H   0  0  0  0  0  0  0  0  0  0  0  0
   -2.4505   -1.1718    0.8073 H   0  0  0  0  0  0  0  0  0  0  0  0
   -4.2588   -1.6494    2.0588 H   0  0  0  0  0  0  0  0  0  0  0  0
   -4.5083    0.0081    2.6455 H   0  0  0  0  0  0  0  0  0  0  0  0
   -6.2593   -0.5458    1.0949 H   0  0  0  0  0  0  0  0  0  0  0  0
   -5.1608   -1.2424   -0.1059 H   0  0  0  0  0  0  0  0  0  0  0  0
   -5.0365    0.7590   -1.1571 H   0  0  0  0  0  0  0  0  0  0  0  0
   -6.1321    1.4737    0.0908 H   0  0  0  0  0  0  0  0  0  0  0  0
   -4.2437    1.8486    1.5965 H   0  0  0  0  0  0  0  0  0  0  0  0
   -3.7597    3.7637    0.4941 H   0  0  0  0  0  0  0  0  0  0  0  0
   -4.9120    3.1805   -0.5595 H   0  0  0  0  0  0  0  0  0  0  0  0
    2.7992   -3.0591   -4.0792 H   0  0  0  0  0  0  0  0  0  0  0  0
    2.8512   -1.2575   -4.2358 H   0  0  0  0  0  0  0  0  0  0  0  0
  1  2  1  0
  2  3  2  0
  3  4  1  0
  4  5  2  0
  5  6  1  0
  6  7  1  0
  7  8  1  0
  8  9  2  0
  9 10  1  0
 10 11  1  0
 11 12  1  0
 12 13  1  0
 13 14  1  0
 14 15  1  0
 15 16  1  0
 16 17  1  0
 17 18  1  0
 10 19  2  0
 19 20  1  0
 20 21  2  0
 21 22  1  0
 22 23  1  0
 22 24  2  0
  6 25  2  0
 25  2  1  0
 21  8  1  0
 17 12  1  0
  1 26  1  0
  1 27  1  0
  1 28  1  0
  3 29  1  0
  4 30  1  0
  5 31  1  0
  7 32  1  0
  9 33  1  0
 11 34  1  0
 12 35  1  1
 13 36  1  0
 13 37  1  0
 14 38  1  0
 14 39  1  0
 15 40  1  0
 15 41  1  0
 16 42  1  0
 16 43  1  0
 17 44  1  1
 18 45  1  0
 18 46  1  0
 23 47  1  0
 23 48  1  0
M  END
$$$$
