@<TRIPOS>MOLECULE
*****
 48 50 0 0 0
SMALL
GASTEIGER

@<TRIPOS>ATOM
      1 C           6.2449   -0.6376    2.6912 C.3     1  UNL1       -0.0223
      2 C           5.2791   -0.2025    1.6380 C.ar    1  UNL1        0.0403
      3 C           5.6217    0.8334    0.7850 C.ar    1  UNL1       -0.0405
      4 C           4.7398    1.2440   -0.1904 C.ar    1  UNL1       -0.0568
      5 C           3.5313    0.6061   -0.2899 C.ar    1  UNL1       -0.0216
      6 C           3.1963   -0.4180    0.5556 C.ar    1  UNL1        0.1232
      7 N           1.9552   -1.0616    0.4391 N.pl3   1  UNL1       -0.2975
      8 C           1.0124   -0.8545   -0.6044 C.ar    1  UNL1        0.0683
      9 C          -0.2062   -0.2621   -0.2387 C.ar    1  UNL1        0.0034
     10 C          -1.1412   -0.0433   -1.2117 C.ar    1  UNL1        0.1433
     11 N          -2.4077    0.5532   -0.9164 N.pl3   1  UNL1       -0.3233
     12 C          -2.7538    0.9272    0.4123 C.3     1  UNL1        0.0371
     13 C          -2.8286   -0.2665    1.3194 C.3     1  UNL1       -0.0331
     14 C          -4.2487   -0.5640    1.7546 C.3     1  UNL1       -0.0513
     15 C          -5.2412   -0.4360    0.6420 C.3     1  UNL1       -0.0515
     16 C          -5.1886    0.9012   -0.0601 C.3     1  UNL1       -0.0360
     17 C          -4.0408    1.6884    0.5037 C.3     1  UNL1        0.0234
     18 N          -3.9686    2.9778   -0.1598 N.3     1  UNL1       -0.3257
     19 N          -0.8360   -0.4123   -2.4776 N.ar    1  UNL1       -0.1336
     20 N           0.3084   -0.9663   -2.8021 N.ar    1  UNL1       -0.1409
     21 C           1.2941   -1.2189   -1.8846 C.ar    1  UNL1        0.1685
     22 C           2.5088   -1.8925   -2.2581 C.2     1  UNL1        0.2635
     23 N           2.7412   -2.1275   -3.6563 N.am    1  UNL1       -0.3240
     24 O           3.3643   -2.2810   -1.4474 O.2     1  UNL1       -0.2686
     25 N           4.0781   -0.7914    1.4927 N.ar    1  UNL1       -0.2371
     26 H           5.9967   -1.6301    3.0823 H       1  UNL1        0.0292
     27 H           6.3203    0.1350    3.5013 H       1  UNL1        0.0292
     28 H           7.2680   -0.6869    2.2414 H       1  UNL1        0.0292
     29 H           6.5635    1.3117    0.8827 H       1  UNL1        0.0635
     30 H           5.0076    2.0728   -0.8764 H       1  UNL1        0.0619
     31 H           2.8394    0.9470   -1.0744 H       1  UNL1        0.0652
     32 H           1.6956   -1.7648    1.1951 H       1  UNL1        0.1536
     33 H          -0.3769    0.0103    0.7947 H       1  UNL1        0.0672
     34 H          -3.0834    0.7151   -1.6918 H       1  UNL1        0.1478
     35 H          -1.9311    1.6259    0.7660 H       1  UNL1        0.0513
     36 H          -2.2425   -0.1391    2.2533 H       1  UNL1        0.0284
     37 H          -2.4505   -1.1718    0.8073 H       1  UNL1        0.0284
     38 H          -4.2588   -1.6494    2.0588 H       1  UNL1        0.0266
     39 H          -4.5083    0.0081    2.6455 H       1  UNL1        0.0266
     40 H          -6.2593   -0.5458    1.0949 H       1  UNL1        0.0266
     41 H          -5.1608   -1.2424   -0.1059 H       1  UNL1        0.0266
     42 H          -5.0365    0.7590   -1.1571 H       1  UNL1        0.0281
     43 H          -6.1321    1.4737    0.0908 H       1  UNL1        0.0281
     44 H          -4.2437    1.8486    1.5965 H       1  UNL1        0.0476
     45 H          -3.7597    3.7637    0.4941 H       1  UNL1        0.1185
     46 H          -4.9120    3.1805   -0.5595 H       1  UNL1        0.1185
     47 H           2.7992   -3.0591   -4.0792 H       1  UNL1        0.1453
     48 H           2.8512   -1.2575   -4.2358 H       1  UNL1        0.1453
@<TRIPOS>BOND
     1     1     2    1
     2     2     3   ar
     3     3     4   ar
     4     4     5   ar
     5     5     6   ar
     6     6     7    1
     7     7     8    1
     8     8     9   ar
     9     9    10   ar
    10    10    11    1
    11    11    12    1
    12    12    13    1
    13    13    14    1
    14    14    15    1
    15    15    16    1
    16    16    17    1
    17    17    18    1
    18    10    19   ar
    19    19    20   ar
    20    20    21   ar
    21    21    22    1
    22    22    23   am
    23    22    24    2
    24     6    25   ar
    25    25     2   ar
    26    21     8   ar
    27    17    12    1
    28     1    26    1
    29     1    27    1
    30     1    28    1
    31     3    29    1
    32     4    30    1
    33     5    31    1
    34     7    32    1
    35     9    33    1
    36    11    34    1
    37    12    35    1
    38    13    36    1
    39    13    37    1
    40    14    38    1
    41    14    39    1
    42    15    40    1
    43    15    41    1
    44    16    42    1
    45    16    43    1
    46    17    44    1
    47    18    45    1
    48    18    46    1
    49    23    47    1
    50    23    48    1
