@<TRIPOS>MOLECULE
*****
 56 59 0 0 0
SMALL
GASTEIGER

@<TRIPOS>ATOM
      1 N         -11.4024   -1.0198   -0.4603 N.1     1  UNL1       -0.1908
      2 C         -10.2118   -0.9912   -0.4387 C.1     1  UNL1        0.1006
      3 C          -8.7410   -0.9585   -0.4203 C.ar    1  UNL1        0.0703
      4 C          -8.0950   -2.1896   -0.3767 C.ar    1  UNL1       -0.0395
      5 C          -6.6682   -2.0590   -0.3873 C.ar    1  UNL1       -0.0186
      6 C          -6.0441   -0.9266   -0.4262 C.ar    1  UNL1        0.1224
      7 O          -4.6934   -0.8588   -0.4266 O.3     1  UNL1       -0.4888
      8 C          -3.8279    0.0985   -0.7835 C.3     1  UNL1        0.1003
      9 C          -3.4285    1.2770   -0.0143 C.3     1  UNL1       -0.0141
     10 C          -2.7029    1.1091    1.2994 C.3     1  UNL1       -0.0312
     11 C          -1.4703    0.2068    1.0695 C.3     1  UNL1        0.0233
     12 N          -0.4297    0.9839    0.5482 N.am    1  UNL1       -0.3124
     13 C           0.9154    1.0216    0.5393 C.2     1  UNL1        0.2140
     14 O           1.5395    0.0182    1.2673 O.2     1  UNL1       -0.2758
     15 C           1.9035    1.8961   -0.0706 C.3     1  UNL1        0.0334
     16 C           2.9372    2.3596    0.9325 C.3     1  UNL1        0.0093
     17 S           3.7939    1.0037    1.6310 S.3     1  UNL1       -0.0873
     18 C           5.1352    0.3780    0.8216 C.ar    1  UNL1        0.1695
     19 N           6.2094    0.1162    0.9078 N.ar    1  UNL1       -0.2232
     20 C           7.4630   -0.1641    1.0497 C.ar    1  UNL1        0.0790
     21 C           8.5941   -0.0898    1.6019 C.ar    1  UNL1       -0.0355
     22 C           9.7908   -0.6248    1.1462 C.ar    1  UNL1       -0.0597
     23 C           9.7770   -1.3119   -0.0291 C.ar    1  UNL1       -0.0609
     24 C           8.5630   -1.4553   -0.7256 C.ar    1  UNL1       -0.0474
     25 C           7.4153   -0.9616   -0.3083 C.ar    1  UNL1        0.0647
     26 C           6.1522   -0.9433   -0.8674 C.ar    1  UNL1        0.2598
     27 O           6.1409   -1.6109   -2.0049 O.2     1  UNL1       -0.2671
     28 N           4.9650   -0.3974   -0.5154 N.ar    1  UNL1       -0.3015
     29 C          -1.8912   -0.9584    0.1907 C.3     1  UNL1       -0.0312
     30 C          -2.4729   -0.6008   -1.1323 C.3     1  UNL1       -0.0141
     31 C          -6.7358    0.2814   -0.4648 C.ar    1  UNL1       -0.0003
     32 C          -8.1461    0.2550   -0.4559 C.ar    1  UNL1        0.0618
     33 CL         -9.1175    1.6842   -0.4781 Cl      1  UNL1       -0.0821
     34 H          -8.5434   -3.1398   -0.3435 H       1  UNL1        0.0632
     35 H          -6.1523   -3.0308   -0.3967 H       1  UNL1        0.0654
     36 H          -4.1675    0.5646   -1.8524 H       1  UNL1        0.0733
     37 H          -4.2309    2.0330    0.0758 H       1  UNL1        0.0301
     38 H          -2.6785    1.8334   -0.6949 H       1  UNL1        0.0301
     39 H          -3.3310    0.8582    2.0885 H       1  UNL1        0.0284
     40 H          -2.2947    2.1344    1.4953 H       1  UNL1        0.0284
     41 H          -1.1908   -0.2235    2.0374 H       1  UNL1        0.0498
     42 H          -0.8440    1.9163   -0.0740 H       1  UNL1        0.1490
     43 H           1.4523    2.7488   -0.6240 H       1  UNL1        0.0366
     44 H           2.5048    1.2916   -0.8258 H       1  UNL1        0.0366
     45 H           3.6408    3.0600    0.3252 H       1  UNL1        0.0385
     46 H           2.5027    3.0840    1.6667 H       1  UNL1        0.0385
     47 H           8.6806    0.5034    2.5647 H       1  UNL1        0.0639
     48 H          10.7139   -0.4620    1.7180 H       1  UNL1        0.0618
     49 H          10.6861   -1.7190   -0.4174 H       1  UNL1        0.0618
     50 H           8.6078   -1.9859   -1.6793 H       1  UNL1        0.0626
     51 H           4.0995   -0.4100   -0.8893 H       1  UNL1        0.1709
     52 H          -1.0463   -1.7005    0.1863 H       1  UNL1        0.0284
     53 H          -2.7001   -1.5254    0.7131 H       1  UNL1        0.0284
     54 H          -2.7619   -1.6179   -1.5735 H       1  UNL1        0.0301
     55 H          -1.9231   -0.0160   -1.8068 H       1  UNL1        0.0301
     56 H          -6.2404    1.2356   -0.4948 H       1  UNL1        0.0669
@<TRIPOS>BOND
     1     1     2    3
     2     2     3    1
     3     3     4   ar
     4     4     5   ar
     5     5     6   ar
     6     6     7    1
     7     7     8    1
     8     8     9    1
     9     9    10    1
    10    10    11    1
    11    11    12    1
    12    12    13   am
    13    13    14    2
    14    13    15    1
    15    15    16    1
    16    16    17    1
    17    17    18    1
    18    18    19   ar
    19    19    20   ar
    20    20    21   ar
    21    21    22   ar
    22    22    23   ar
    23    23    24   ar
    24    24    25   ar
    25    25    26   ar
    26    26    27    2
    27    26    28   ar
    28    11    29    1
    29    29    30    1
    30     6    31   ar
    31    31    32   ar
    32    32    33    1
    33    32     3   ar
    34    30     8    1
    35    28    18   ar
    36    25    20   ar
    37     4    34    1
    38     5    35    1
    39     8    36    1
    40     9    37    1
    41     9    38    1
    42    10    39    1
    43    10    40    1
    44    11    41    1
    45    12    42    1
    46    15    43    1
    47    15    44    1
    48    16    45    1
    49    16    46    1
    50    21    47    1
    51    22    48    1
    52    23    49    1
    53    24    50    1
    54    28    51    1
    55    29    52    1
    56    29    53    1
    57    30    54    1
    58    30    55    1
    59    31    56    1
