
     RDKit          3D

 56 59  0  0  0  0  0  0  0  0999 V2000
  -11.4024   -1.0198   -0.4603 N   0  0  0  0  0  0  0  0  0  0  0  0
  -10.2118   -0.9912   -0.4387 C   0  0  0  0  0  0  0  0  0  0  0  0
   -8.7410   -0.9585   -0.4203 C   0  0  0  0  0  0  0  0  0  0  0  0
   -8.0950   -2.1896   -0.3767 C   0  0  0  0  0  0  0  0  0  0  0  0
   -6.6682   -2.0590   -0.3873 C   0  0  0  0  0  0  0  0  0  0  0  0
   -6.0441   -0.9266   -0.4262 C   0  0  0  0  0  0  0  0  0  0  0  0
   -4.6934   -0.8588   -0.4266 O   0  0  0  0  0  0  0  0  0  0  0  0
   -3.8279    0.0985   -0.7835 C   0  0  1  0  0  0  0  0  0  0  0  0
   -3.4285    1.2770   -0.0143 C   0  0  0  0  0  0  0  0  0  0  0  0
   -2.7029    1.1091    1.2994 C   0  0  0  0  0  0  0  0  0  0  0  0
   -1.4703    0.2068    1.0695 C   0  0  2  0  0  0  0  0  0  0  0  0
   -0.4297    0.9839    0.5482 N   0  0  0  0  0  0  0  0  0  0  0  0
    0.9154    1.0216    0.5393 C   0  0  0  0  0  0  0  0  0  0  0  0
    1.5395    0.0182    1.2673 O   0  0  0  0  0  0  0  0  0  0  0  0
    1.9035    1.8961   -0.0706 C   0  0  0  0  0  0  0  0  0  0  0  0
    2.9372    2.3596    0.9325 C   0  0  0  0  0  0  0  0  0  0  0  0
    3.7939    1.0037    1.6310 S   0  0  0  0  0  0  0  0  0  0  0  0
    5.1352    0.3780    0.8216 C   0  0  0  0  0  0  0  0  0  0  0  0
    6.2094    0.1162    0.9078 N   0  0  0  0  0  0  0  0  0  0  0  0
    7.4630   -0.1641    1.0497 C   0  0  0  0  0  0  0  0  0  0  0  0
    8.5941   -0.0898    1.6019 C   0  0  0  0  0  0  0  0  0  0  0  0
    9.7908   -0.6248    1.1462 C   0  0  0  0  0  0  0  0  0  0  0  0
    9.7770   -1.3119   -0.0291 C   0  0  0  0  0  0  0  0  0  0  0  0
    8.5630   -1.4553   -0.7256 C   0  0  0  0  0  0  0  0  0  0  0  0
    7.4153   -0.9616   -0.3083 C   0  0  0  0  0  0  0  0  0  0  0  0
    6.1522   -0.9433   -0.8674 C   0  0  0  0  0  0  0  0  0  0  0  0
    6.1409   -1.6109   -2.0049 O   0  0  0  0  0  0  0  0  0  0  0  0
    4.9650   -0.3974   -0.5154 N   0  0  0  0  0  0  0  0  0  0  0  0
   -1.8912   -0.9584    0.1907 C   0  0  0  0  0  0  0  0  0  0  0  0
   -2.4729   -0.6008   -1.1323 C   0  0  0  0  0  0  0  0  0  0  0  0
   -6.7358    0.2814   -0.4648 C   0  0  0  0  0  0  0  0  0  0  0  0
   -8.1461    0.2550   -0.4559 C   0  0  0  0  0  0  0  0  0  0  0  0
   -9.1175    1.6842   -0.4781 Cl  0  0  0  0  0  0  0  0  0  0  0  0
   -8.5434   -3.1398   -0.3435 H   0  0  0  0  0  0  0  0  0  0  0  0
   -6.1523   -3.0308   -0.3967 H   0  0  0  0  0  0  0  0  0  0  0  0
   -4.1675    0.5646   -1.8524 H   0  0  0  0  0  0  0  0  0  0  0  0
   -4.2309    2.0330    0.0758 H   0  0  0  0  0  0  0  0  0  0  0  0
   -2.6785    1.8334   -0.6949 H   0  0  0  0  0  0  0  0  0  0  0  0
   -3.3310    0.8582    2.0885 H   0  0  0  0  0  0  0  0  0  0  0  0
   -2.2947    2.1344    1.4953 H   0  0  0  0  0  0  0  0  0  0  0  0
   -1.1908   -0.2235    2.0374 H   0  0  0  0  0  0  0  0  0  0  0  0
   -0.8440    1.9163   -0.0740 H   0  0  0  0  0  0  0  0  0  0  0  0
    1.4523    2.7488   -0.6240 H   0  0  0  0  0  0  0  0  0  0  0  0
    2.5048    1.2916   -0.8258 H   0  0  0  0  0  0  0  0  0  0  0  0
    3.6408    3.0600    0.3252 H   0  0  0  0  0  0  0  0  0  0  0  0
    2.5027    3.0840    1.6667 H   0  0  0  0  0  0  0  0  0  0  0  0
    8.6806    0.5034    2.5647 H   0  0  0  0  0  0  0  0  0  0  0  0
   10.7139   -0.4620    1.7180 H   0  0  0  0  0  0  0  0  0  0  0  0
   10.6861   -1.7190   -0.4174 H   0  0  0  0  0  0  0  0  0  0  0  0
    8.6078   -1.9859   -1.6793 H   0  0  0  0  0  0  0  0  0  0  0  0
    4.0995   -0.4100   -0.8893 H   0  0  0  0  0  0  0  0  0  0  0  0
   -1.0463   -1.7005    0.1863 H   0  0  0  0  0  0  0  0  0  0  0  0
   -2.7001   -1.5254    0.7131 H   0  0  0  0  0  0  0  0  0  0  0  0
   -2.7619   -1.6179   -1.5735 H   0  0  0  0  0  0  0  0  0  0  0  0
   -1.9231   -0.0160   -1.8068 H   0  0  0  0  0  0  0  0  0  0  0  0
   -6.2404    1.2356   -0.4948 H   0  0  0  0  0  0  0  0  0  0  0  0
  1  2  3  0
  2  3  1  0
  3  4  2  0
  4  5  1  0
  5  6  2  0
  6  7  1  0
  7  8  1  0
  8  9  1  0
  9 10  1  0
 10 11  1  0
 11 12  1  0
 12 13  1  0
 13 14  2  0
 13 15  1  0
 15 16  1  0
 16 17  1  0
 17 18  1  0
 18 19  2  0
 19 20  1  0
 20 21  2  0
 21 22  1  0
 22 23  2  0
 23 24  1  0
 24 25  2  0
 25 26  1  0
 26 27  2  0
 26 28  1  0
 11 29  1  0
 29 30  1  0
  6 31  1  0
 31 32  2  0
 32 33  1  0
 32  3  1  0
 30  8  1  0
 28 18  1  0
 25 20  1  0
  4 34  1  0
  5 35  1  0
  8 36  1  6
  9 37  1  0
  9 38  1  0
 10 39  1  0
 10 40  1  0
 11 41  1  1
 12 42  1  0
 15 43  1  0
 15 44  1  0
 16 45  1  0
 16 46  1  0
 21 47  1  0
 22 48  1  0
 23 49  1  0
 24 50  1  0
 28 51  1  0
 29 52  1  0
 29 53  1  0
 30 54  1  0
 30 55  1  0
 31 56  1  0
M  END
$$$$
