@<TRIPOS>MOLECULE
*****
 76 79 0 0 0
SMALL
GASTEIGER

@<TRIPOS>ATOM
      1 C          -8.3950   -3.7101   -1.3692 C.3     1  UNL1       -0.0223
      2 C          -8.1910   -2.2369   -1.1329 C.ar    1  UNL1        0.0393
      3 C          -7.2011   -1.7868   -0.2921 C.ar    1  UNL1       -0.0337
      4 C          -6.9876   -0.4489   -0.0534 C.ar    1  UNL1        0.0004
      5 C          -5.9222   -0.0165    0.8481 C.3     1  UNL1        0.1153
      6 O          -4.8569    0.4738    0.0699 O.3     1  UNL1       -0.4874
      7 C          -3.6772    0.9655    0.5414 C.ar    1  UNL1        0.1211
      8 C          -2.7379    1.4094   -0.3747 C.ar    1  UNL1       -0.0181
      9 C          -1.5354    1.9119    0.0653 C.ar    1  UNL1       -0.0334
     10 C          -1.2122    1.9973    1.4018 C.ar    1  UNL1        0.0885
     11 S           0.3094    2.6407    1.9139 S.O2    1  UNL1       -0.0010
     12 O           0.1189    3.5672    3.0868 O.2     1  UNL1       -0.1693
     13 O           0.8238    3.5207    0.7773 O.2     1  UNL1       -0.1693
     14 C           1.5284    1.4447    2.2373 C.3     1  UNL1        0.0952
     15 C           1.9387    0.5815    1.0949 C.3     1  UNL1        0.0906
     16 C           3.0009   -0.3820    1.5960 C.2     1  UNL1       -0.0606
     17 C           4.1552   -0.5124    0.9209 C.2     1  UNL1       -0.0692
     18 C           4.4597    0.2318   -0.2951 C.3     1  UNL1       -0.0188
     19 C           5.6043   -0.2820   -1.1036 C.3     1  UNL1        0.0026
     20 N           6.5063   -1.1566   -0.4891 N.3     1  UNL1       -0.3015
     21 C           7.7521   -0.7280   -0.0143 C.3     1  UNL1        0.0012
     22 C           8.8070   -0.3423   -0.9862 C.3     1  UNL1       -0.0339
     23 C           9.1662   -1.4853   -1.9251 C.3     1  UNL1       -0.0615
     24 C           8.6240    0.9032   -1.7612 C.3     1  UNL1       -0.0615
     25 C           5.8417   -2.1449    0.3139 C.3     1  UNL1        0.0026
     26 C           5.1709   -1.4729    1.4780 C.3     1  UNL1       -0.0188
     27 N           0.9232   -0.2216    0.4921 N.am    1  UNL1       -0.1779
     28 O           0.7015   -0.1455   -0.8324 O.3     1  UNL1       -0.2921
     29 C           0.1623   -1.1167    1.2668 C.2     1  UNL1        0.2256
     30 O           0.3282   -1.2641    2.5095 O.2     1  UNL1       -0.2772
     31 C          -2.1678    1.5468    2.3085 C.ar    1  UNL1       -0.0334
     32 C          -3.3747    1.0414    1.8918 C.ar    1  UNL1       -0.0181
     33 C          -7.8144    0.4444   -0.6971 C.ar    1  UNL1        0.0068
     34 C          -7.6667    1.7818   -0.5140 C.ar    1  UNL1       -0.0522
     35 C          -8.4946    2.7033   -1.1578 C.ar    1  UNL1       -0.0611
     36 C          -9.4984    2.2725   -2.0092 C.ar    1  UNL1       -0.0597
     37 C          -9.6369    0.9044   -2.1863 C.ar    1  UNL1       -0.0357
     38 C          -8.8154    0.0043   -1.5467 C.ar    1  UNL1        0.0716
     39 N          -8.9708   -1.3245   -1.7368 N.ar    1  UNL1       -0.2519
     40 H          -8.3527   -4.2734   -0.4035 H       1  UNL1        0.0292
     41 H          -7.6037   -4.1327   -2.0152 H       1  UNL1        0.0292
     42 H          -9.4099   -3.8277   -1.7960 H       1  UNL1        0.0292
     43 H          -6.5800   -2.5504    0.1874 H       1  UNL1        0.0639
     44 H          -5.5295   -0.9065    1.3913 H       1  UNL1        0.0748
     45 H          -6.2476    0.6903    1.6345 H       1  UNL1        0.0748
     46 H          -2.9746    1.3500   -1.4387 H       1  UNL1        0.0655
     47 H          -0.8235    2.2503   -0.6937 H       1  UNL1        0.0638
     48 H           2.4569    1.9921    2.6013 H       1  UNL1        0.0527
     49 H           1.2569    0.7701    3.1010 H       1  UNL1        0.0527
     50 H           2.4336    1.2513    0.3505 H       1  UNL1        0.0585
     51 H           2.8175   -0.9561    2.4928 H       1  UNL1        0.0591
     52 H           4.6329    1.3065   -0.0343 H       1  UNL1        0.0322
     53 H           3.5414    0.2012   -0.9341 H       1  UNL1        0.0322
     54 H           6.1517    0.5941   -1.5450 H       1  UNL1        0.0430
     55 H           5.1790   -0.8374   -2.0051 H       1  UNL1        0.0430
     56 H           8.1961   -1.5905    0.5872 H       1  UNL1        0.0429
     57 H           7.6623    0.1310    0.7284 H       1  UNL1        0.0429
     58 H           9.7623   -0.1798   -0.3663 H       1  UNL1        0.0308
     59 H           8.4518   -1.4795   -2.7693 H       1  UNL1        0.0233
     60 H           9.1608   -2.4475   -1.4039 H       1  UNL1        0.0233
     61 H          10.1709   -1.2676   -2.3536 H       1  UNL1        0.0233
     62 H           9.6651    1.2728   -2.0305 H       1  UNL1        0.0233
     63 H           8.1687    1.7336   -1.1954 H       1  UNL1        0.0233
     64 H           8.1349    0.7910   -2.7542 H       1  UNL1        0.0233
     65 H           6.5108   -2.9592    0.6499 H       1  UNL1        0.0430
     66 H           5.0442   -2.5963   -0.3224 H       1  UNL1        0.0430
     67 H           5.8740   -0.8568    2.0725 H       1  UNL1        0.0322
     68 H           4.7112   -2.2071    2.1572 H       1  UNL1        0.0322
     69 H           1.3074   -0.8014   -1.2634 H       1  UNL1        0.2417
     70 H          -0.6207   -1.7422    0.8444 H       1  UNL1        0.1274
     71 H          -1.9382    1.6038    3.3623 H       1  UNL1        0.0638
     72 H          -4.1026    0.6959    2.6367 H       1  UNL1        0.0655
     73 H          -6.9055    2.1439    0.1334 H       1  UNL1        0.0624
     74 H          -8.3930    3.7673   -1.0255 H       1  UNL1        0.0618
     75 H         -10.1621    2.9818   -2.5264 H       1  UNL1        0.0618
     76 H         -10.4136    0.5160   -2.8472 H       1  UNL1        0.0639
@<TRIPOS>BOND
     1     1     2    1
     2     2     3   ar
     3     3     4   ar
     4     4     5    1
     5     5     6    1
     6     6     7    1
     7     7     8   ar
     8     8     9   ar
     9     9    10   ar
    10    10    11    1
    11    11    12    2
    12    11    13    2
    13    11    14    1
    14    14    15    1
    15    15    16    1
    16    16    17    2
    17    17    18    1
    18    18    19    1
    19    19    20    1
    20    20    21    1
    21    21    22    1
    22    22    23    1
    23    22    24    1
    24    20    25    1
    25    25    26    1
    26    15    27    1
    27    27    28    1
    28    27    29   am
    29    29    30    2
    30    10    31   ar
    31    31    32   ar
    32     4    33   ar
    33    33    34   ar
    34    34    35   ar
    35    35    36   ar
    36    36    37   ar
    37    37    38   ar
    38    38    39   ar
    39    39     2   ar
    40    32     7   ar
    41    38    33   ar
    42    26    17    1
    43     1    40    1
    44     1    41    1
    45     1    42    1
    46     3    43    1
    47     5    44    1
    48     5    45    1
    49     8    46    1
    50     9    47    1
    51    14    48    1
    52    14    49    1
    53    15    50    1
    54    16    51    1
    55    18    52    1
    56    18    53    1
    57    19    54    1
    58    19    55    1
    59    21    56    1
    60    21    57    1
    61    22    58    1
    62    23    59    1
    63    23    60    1
    64    23    61    1
    65    24    62    1
    66    24    63    1
    67    24    64    1
    68    25    65    1
    69    25    66    1
    70    26    67    1
    71    26    68    1
    72    28    69    1
    73    29    70    1
    74    31    71    1
    75    32    72    1
    76    34    73    1
    77    35    74    1
    78    36    75    1
    79    37    76    1
