
     RDKit          3D

 50 54  0  0  0  0  0  0  0  0999 V2000
   -3.5015   -2.4817   -0.9230 O   0  0  0  0  0  0  0  0  0  0  0  0
   -3.7252   -1.3296   -0.4886 C   0  0  0  0  0  0  0  0  0  0  0  0
   -2.6805   -0.6411    0.1211 N   0  0  0  0  0  0  0  0  0  0  0  0
   -1.3423   -1.0831    0.3267 C   0  0  0  0  0  0  0  0  0  0  0  0
   -0.8470   -2.3018   -0.0559 C   0  0  0  0  0  0  0  0  0  0  0  0
    0.4831   -2.6655    0.1814 C   0  0  0  0  0  0  0  0  0  0  0  0
    1.3376   -1.7897    0.8162 C   0  0  0  0  0  0  0  0  0  0  0  0
    0.8773   -0.5447    1.2206 C   0  0  0  0  0  0  0  0  0  0  0  0
    1.7716    0.4013    1.8977 C   0  0  0  0  0  0  0  0  0  0  0  0
    1.3923    1.1071    3.0217 C   0  0  0  0  0  0  0  0  0  0  0  0
    2.2580    1.9913    3.6370 C   0  0  0  0  0  0  0  0  0  0  0  0
    3.4887    2.1589    3.1229 N   0  0  0  0  0  0  0  0  0  0  0  0
    3.8672    1.4644    2.0137 C   0  0  0  0  0  0  0  0  0  0  0  0
    5.0132    1.4102    1.2670 C   0  0  0  0  0  0  0  0  0  0  0  0
    4.8615    0.5208    0.2229 C   0  0  0  0  0  0  0  0  0  0  0  0
    5.8330    0.1700   -0.7988 C   0  0  0  0  0  0  0  0  0  0  0  0
    7.0755    0.7608   -0.7804 C   0  0  0  0  0  0  0  0  0  0  0  0
    8.0417    0.4602   -1.7348 C   0  0  0  0  0  0  0  0  0  0  0  0
    7.7284   -0.4277   -2.6815 N   0  0  0  0  0  0  0  0  0  0  0  0
    6.5322   -1.0399   -2.7546 C   0  0  0  0  0  0  0  0  0  0  0  0
    5.5617   -0.7369   -1.7944 C   0  0  0  0  0  0  0  0  0  0  0  0
    3.5942    0.0469    0.3682 N   0  0  0  0  0  0  0  0  0  0  0  0
    3.0128    0.6013    1.4187 N   0  0  0  0  0  0  0  0  0  0  0  0
   -0.4323   -0.2403    0.9636 C   0  0  0  0  0  0  0  0  0  0  0  0
   -5.0819   -0.7533   -0.6414 C   0  0  0  0  0  0  0  0  0  0  0  0
   -6.0476   -1.5233   -1.2629 C   0  0  0  0  0  0  0  0  0  0  0  0
   -7.3107   -1.0262   -1.4223 C   0  0  0  0  0  0  0  0  0  0  0  0
   -7.6598    0.2408   -0.9755 C   0  0  0  0  0  0  0  0  0  0  0  0
   -6.7007    1.0091   -0.3566 C   0  0  0  0  0  0  0  0  0  0  0  0
   -7.0015    2.3732    0.1467 C   0  0  0  0  0  0  0  0  0  0  0  0
   -6.5266    2.5240    1.4236 F   0  0  0  0  0  0  0  0  0  0  0  0
   -6.3964    3.2905   -0.7166 F   0  0  0  0  0  0  0  0  0  0  0  0
   -8.3437    2.5929    0.0917 F   0  0  0  0  0  0  0  0  0  0  0  0
   -5.4254    0.4952   -0.2010 C   0  0  0  0  0  0  0  0  0  0  0  0
   -2.9191    0.3366    0.4752 H   0  0  0  0  0  0  0  0  0  0  0  0
   -1.4409   -3.0249   -0.5468 H   0  0  0  0  0  0  0  0  0  0  0  0
    0.8497   -3.6253   -0.1269 H   0  0  0  0  0  0  0  0  0  0  0  0
    2.3693   -2.0123    1.0261 H   0  0  0  0  0  0  0  0  0  0  0  0
    0.4004    0.9651    3.4273 H   0  0  0  0  0  0  0  0  0  0  0  0
    1.9050    2.5132    4.5111 H   0  0  0  0  0  0  0  0  0  0  0  0
    5.8940    1.9897    1.4849 H   0  0  0  0  0  0  0  0  0  0  0  0
    7.3296    1.4867   -0.0052 H   0  0  0  0  0  0  0  0  0  0  0  0
    9.0162    0.9144   -1.7321 H   0  0  0  0  0  0  0  0  0  0  0  0
    6.3473   -1.7429   -3.5414 H   0  0  0  0  0  0  0  0  0  0  0  0
    4.5874   -1.2232   -1.8382 H   0  0  0  0  0  0  0  0  0  0  0  0
   -0.7814    0.7328    1.2829 H   0  0  0  0  0  0  0  0  0  0  0  0
   -5.7985   -2.5148   -1.6197 H   0  0  0  0  0  0  0  0  0  0  0  0
   -8.1143   -1.5901   -1.9061 H   0  0  0  0  0  0  0  0  0  0  0  0
   -8.6668    0.6198   -1.1100 H   0  0  0  0  0  0  0  0  0  0  0  0
   -4.6849    1.1408    0.2996 H   0  0  0  0  0  0  0  0  0  0  0  0
  1  2  2  0
  2  3  1  0
  3  4  1  0
  4  5  2  0
  5  6  1  0
  6  7  2  0
  7  8  1  0
  8  9  1  0
  9 10  2  0
 10 11  1  0
 11 12  2  0
 12 13  1  0
 13 14  2  0
 14 15  1  0
 15 16  1  0
 16 17  2  0
 17 18  1  0
 18 19  2  0
 19 20  1  0
 20 21  2  0
 15 22  2  0
 22 23  1  0
  8 24  2  0
  2 25  1  0
 25 26  2  0
 26 27  1  0
 27 28  2  0
 28 29  1  0
 29 30  1  0
 30 31  1  0
 30 32  1  0
 30 33  1  0
 29 34  2  0
 24  4  1  0
 34 25  1  0
 23  9  1  0
 23 13  1  0
 21 16  1  0
  3 35  1  0
  5 36  1  0
  6 37  1  0
  7 38  1  0
 10 39  1  0
 11 40  1  0
 14 41  1  0
 17 42  1  0
 18 43  1  0
 20 44  1  0
 21 45  1  0
 24 46  1  0
 26 47  1  0
 27 48  1  0
 28 49  1  0
 34 50  1  0
M  END
$$$$
