@<TRIPOS>MOLECULE
*****
 50 54 0 0 0
SMALL
GASTEIGER

@<TRIPOS>ATOM
      1 O          -3.5015   -2.4817   -0.9230 O.2     1  UNL1       -0.2699
      2 C          -3.7252   -1.3296   -0.4886 C.2     1  UNL1        0.2483
      3 N          -2.6805   -0.6411    0.1211 N.am    1  UNL1       -0.2815
      4 C          -1.3423   -1.0831    0.3267 C.ar    1  UNL1        0.0343
      5 C          -0.8470   -2.3018   -0.0559 C.ar    1  UNL1       -0.0404
      6 C           0.4831   -2.6655    0.1814 C.ar    1  UNL1       -0.0594
      7 C           1.3376   -1.7897    0.8162 C.ar    1  UNL1       -0.0524
      8 C           0.8773   -0.5447    1.2206 C.ar    1  UNL1        0.0023
      9 C           1.7716    0.4013    1.8977 C.ar    1  UNL1        0.0763
     10 C           1.3923    1.1071    3.0217 C.ar    1  UNL1       -0.0174
     11 C           2.2580    1.9913    3.6370 C.ar    1  UNL1        0.0320
     12 N           3.4887    2.1589    3.1229 N.ar    1  UNL1       -0.2360
     13 C           3.8672    1.4644    2.0137 C.ar    1  UNL1        0.1566
     14 C           5.0132    1.4102    1.2670 C.ar    1  UNL1        0.0102
     15 C           4.8615    0.5208    0.2229 C.ar    1  UNL1        0.0954
     16 C           5.8330    0.1700   -0.7988 C.ar    1  UNL1        0.0050
     17 C           7.0755    0.7608   -0.7804 C.ar    1  UNL1       -0.0344
     18 C           8.0417    0.4602   -1.7348 C.ar    1  UNL1        0.0282
     19 N           7.7284   -0.4277   -2.6815 N.ar    1  UNL1       -0.2632
     20 C           6.5322   -1.0399   -2.7546 C.ar    1  UNL1        0.0282
     21 C           5.5617   -0.7369   -1.7944 C.ar    1  UNL1       -0.0344
     22 N           3.5942    0.0469    0.3682 N.ar    1  UNL1       -0.1644
     23 N           3.0128    0.6013    1.4187 N.ar    1  UNL1       -0.2135
     24 C          -0.4323   -0.2403    0.9636 C.ar    1  UNL1       -0.0313
     25 C          -5.0819   -0.7533   -0.6414 C.ar    1  UNL1        0.0376
     26 C          -6.0476   -1.5233   -1.2629 C.ar    1  UNL1       -0.0496
     27 C          -7.3107   -1.0262   -1.4223 C.ar    1  UNL1       -0.0605
     28 C          -7.6598    0.2408   -0.9755 C.ar    1  UNL1       -0.0501
     29 C          -6.7007    1.0091   -0.3566 C.ar    1  UNL1        0.0555
     30 C          -7.0015    2.3732    0.1467 C.3     1  UNL1        0.4174
     31 F          -6.5266    2.5240    1.4236 F       1  UNL1       -0.1659
     32 F          -6.3964    3.2905   -0.7166 F       1  UNL1       -0.1659
     33 F          -8.3437    2.5929    0.0917 F       1  UNL1       -0.1659
     34 C          -5.4254    0.4952   -0.2010 C.ar    1  UNL1       -0.0380
     35 H          -2.9191    0.3366    0.4752 H       1  UNL1        0.1551
     36 H          -1.4409   -3.0249   -0.5468 H       1  UNL1        0.0636
     37 H           0.8497   -3.6253   -0.1269 H       1  UNL1        0.0618
     38 H           2.3693   -2.0123    1.0261 H       1  UNL1        0.0624
     39 H           0.4004    0.9651    3.4273 H       1  UNL1        0.0654
     40 H           1.9050    2.5132    4.5111 H       1  UNL1        0.0831
     41 H           5.8940    1.9897    1.4849 H       1  UNL1        0.0677
     42 H           7.3296    1.4867   -0.0052 H       1  UNL1        0.0639
     43 H           9.0162    0.9144   -1.7321 H       1  UNL1        0.0830
     44 H           6.3473   -1.7429   -3.5414 H       1  UNL1        0.0830
     45 H           4.5874   -1.2232   -1.8382 H       1  UNL1        0.0639
     46 H          -0.7814    0.7328    1.2829 H       1  UNL1        0.0643
     47 H          -5.7985   -2.5148   -1.6197 H       1  UNL1        0.0625
     48 H          -8.1143   -1.5901   -1.9061 H       1  UNL1        0.0618
     49 H          -8.6668    0.6198   -1.1100 H       1  UNL1        0.0623
     50 H          -4.6849    1.1408    0.2996 H       1  UNL1        0.0631
@<TRIPOS>BOND
     1     1     2    2
     2     2     3   am
     3     3     4    1
     4     4     5   ar
     5     5     6   ar
     6     6     7   ar
     7     7     8   ar
     8     8     9    1
     9     9    10   ar
    10    10    11   ar
    11    11    12   ar
    12    12    13   ar
    13    13    14   ar
    14    14    15   ar
    15    15    16    1
    16    16    17   ar
    17    17    18   ar
    18    18    19   ar
    19    19    20   ar
    20    20    21   ar
    21    15    22   ar
    22    22    23   ar
    23     8    24   ar
    24     2    25    1
    25    25    26   ar
    26    26    27   ar
    27    27    28   ar
    28    28    29   ar
    29    29    30    1
    30    30    31    1
    31    30    32    1
    32    30    33    1
    33    29    34   ar
    34    24     4   ar
    35    34    25   ar
    36    23     9   ar
    37    23    13   ar
    38    21    16   ar
    39     3    35    1
    40     5    36    1
    41     6    37    1
    42     7    38    1
    43    10    39    1
    44    11    40    1
    45    14    41    1
    46    17    42    1
    47    18    43    1
    48    20    44    1
    49    21    45    1
    50    24    46    1
    51    26    47    1
    52    27    48    1
    53    28    49    1
    54    34    50    1
