@<TRIPOS>MOLECULE
*****
 51 55 0 0 0
SMALL
GASTEIGER

@<TRIPOS>ATOM
      1 N           5.6788   -1.8754   -2.0519 N.am    1  UNL1       -0.3241
      2 C           4.4182   -1.4078   -1.5614 C.2     1  UNL1        0.2599
      3 O           3.4369   -1.2883   -2.2984 O.2     1  UNL1       -0.2687
      4 C           4.3205   -1.0704   -0.1452 C.ar    1  UNL1        0.1280
      5 C           5.3649   -1.1681    0.7867 C.ar    1  UNL1        0.0588
      6 N           4.8469   -0.7647    1.9483 N.ar    1  UNL1       -0.2353
      7 C           3.5522   -0.4308    1.7662 C.ar    1  UNL1        0.1381
      8 C           2.5836    0.0445    2.6621 C.ar    1  UNL1       -0.0182
      9 C           1.3337    0.3012    2.1865 C.ar    1  UNL1       -0.0477
     10 C           0.9715    0.1181    0.8699 C.ar    1  UNL1        0.0173
     11 C          -0.3690    0.4039    0.3746 C.ar    1  UNL1        0.0781
     12 C          -0.9677    1.6293    0.1777 C.ar    1  UNL1        0.0971
     13 C          -0.4045    2.9504    0.4125 C.ar    1  UNL1        0.0026
     14 C          -0.1411    3.4244    1.6728 C.ar    1  UNL1       -0.0498
     15 C           0.3987    4.6764    1.9040 C.ar    1  UNL1       -0.0258
     16 C           0.6900    5.4947    0.8375 C.ar    1  UNL1        0.1234
     17 F           1.2157    6.7146    1.0557 F       1  UNL1       -0.2055
     18 C           0.4354    5.0461   -0.4576 C.ar    1  UNL1       -0.0258
     19 C          -0.1088    3.7784   -0.6482 C.ar    1  UNL1       -0.0498
     20 N          -2.2150    1.3504   -0.2906 N.ar    1  UNL1       -0.2303
     21 C          -2.4091    0.0284   -0.3897 C.ar    1  UNL1        0.1250
     22 N          -1.2785   -0.5511    0.0177 N.ar    1  UNL1       -0.3247
     23 C          -1.1449   -1.9857    0.0367 C.3     1  UNL1        0.0378
     24 C          -2.0210   -2.5112   -1.0821 C.3     1  UNL1        0.0176
     25 N          -3.3868   -2.1285   -0.7812 N.3     1  UNL1       -0.2882
     26 C          -4.3514   -2.9521   -1.4055 C.3     1  UNL1        0.0600
     27 C          -5.7460   -2.5271   -1.0324 C.3     1  UNL1        0.2518
     28 F          -6.6468   -3.3892   -1.6600 F       1  UNL1       -0.2079
     29 F          -5.9661   -1.2744   -1.6237 F       1  UNL1       -0.2079
     30 C          -3.6244   -0.7399   -0.8539 C.3     1  UNL1        0.0574
     31 C           1.9599   -0.3514    0.0275 C.ar    1  UNL1        0.0211
     32 N           3.2227   -0.6165    0.4823 N.ar    1  UNL1       -0.2949
     33 H           6.3007   -2.5154   -1.5171 H       1  UNL1        0.1453
     34 H           6.0220   -1.5792   -2.9888 H       1  UNL1        0.1453
     35 H           6.3702   -1.5098    0.5513 H       1  UNL1        0.0853
     36 H           2.8557    0.1932    3.7002 H       1  UNL1        0.0654
     37 H           0.5750    0.6630    2.8650 H       1  UNL1        0.0626
     38 H          -0.3606    2.8137    2.5285 H       1  UNL1        0.0625
     39 H           0.6079    5.0525    2.8954 H       1  UNL1        0.0646
     40 H           0.6514    5.6605   -1.3086 H       1  UNL1        0.0646
     41 H          -0.2874    3.4768   -1.6722 H       1  UNL1        0.0625
     42 H          -1.5353   -2.4181    0.9768 H       1  UNL1        0.0505
     43 H          -0.1175   -2.3176   -0.1803 H       1  UNL1        0.0505
     44 H          -1.9819   -3.6186   -1.0276 H       1  UNL1        0.0444
     45 H          -1.6833   -2.2180   -2.0802 H       1  UNL1        0.0444
     46 H          -4.2759   -2.7691   -2.5219 H       1  UNL1        0.0482
     47 H          -4.1906   -4.0416   -1.2474 H       1  UNL1        0.0482
     48 H          -5.9162   -2.4400    0.0538 H       1  UNL1        0.1031
     49 H          -3.9341   -0.3562   -1.8480 H       1  UNL1        0.0506
     50 H          -4.4759   -0.4901   -0.1528 H       1  UNL1        0.0506
     51 H           1.7275   -0.5141   -1.0238 H       1  UNL1        0.0820
@<TRIPOS>BOND
     1     1     2   am
     2     2     3    2
     3     2     4    1
     4     4     5   ar
     5     5     6   ar
     6     6     7   ar
     7     7     8   ar
     8     8     9   ar
     9     9    10   ar
    10    10    11    1
    11    11    12   ar
    12    12    13    1
    13    13    14   ar
    14    14    15   ar
    15    15    16   ar
    16    16    17    1
    17    16    18   ar
    18    18    19   ar
    19    12    20   ar
    20    20    21   ar
    21    21    22   ar
    22    22    23    1
    23    23    24    1
    24    24    25    1
    25    25    26    1
    26    26    27    1
    27    27    28    1
    28    27    29    1
    29    25    30    1
    30    10    31   ar
    31    31    32   ar
    32    32     4   ar
    33    32     7   ar
    34    22    11   ar
    35    19    13   ar
    36    30    21    1
    37     1    33    1
    38     1    34    1
    39     5    35    1
    40     8    36    1
    41     9    37    1
    42    14    38    1
    43    15    39    1
    44    18    40    1
    45    19    41    1
    46    23    42    1
    47    23    43    1
    48    24    44    1
    49    24    45    1
    50    26    46    1
    51    26    47    1
    52    27    48    1
    53    30    49    1
    54    30    50    1
    55    31    51    1
