@<TRIPOS>MOLECULE
*****
 60 64 0 0 0
SMALL
GASTEIGER

@<TRIPOS>ATOM
      1 C           1.4003    0.7442   -0.1027 C.3     1  UNL1       -0.0124
      2 C           0.7811    1.3841   -1.3045 C.3     1  UNL1       -0.0450
      3 C          -0.4424    0.7281   -1.8368 C.3     1  UNL1       -0.0385
      4 C          -1.4300    0.2369   -0.8411 C.3     1  UNL1        0.0483
      5 C          -1.9470   -1.1111   -1.3440 C.3     1  UNL1       -0.0509
      6 C          -2.6390    1.0929   -0.6968 C.2     1  UNL1        0.2283
      7 O          -2.8604    1.9352   -1.6053 O.2     1  UNL1       -0.2746
      8 N          -3.4467    0.8795    0.4708 N.am    1  UNL1       -0.2373
      9 C          -4.7004    1.5967    0.5048 C.3     1  UNL1        0.0488
     10 C          -5.7786    0.7852   -0.1124 C.ar    1  UNL1       -0.0115
     11 C          -6.0946    0.8307   -1.4507 C.ar    1  UNL1       -0.0542
     12 C          -7.1149    0.0529   -1.9942 C.ar    1  UNL1       -0.0433
     13 C          -7.8462   -0.7985   -1.1842 C.ar    1  UNL1        0.0276
     14 N          -7.5419   -0.8449    0.1150 N.ar    1  UNL1       -0.2629
     15 C          -6.5614   -0.0932    0.6206 C.ar    1  UNL1        0.0322
     16 C          -3.0011    0.0050    1.5094 C.2     1  UNL1        0.2224
     17 O          -3.7748   -0.2293    2.4754 O.2     1  UNL1       -0.2752
     18 C          -1.6570   -0.6457    1.5025 C.3     1  UNL1        0.0286
     19 C          -0.8065    0.0923    0.5338 C.3     1  UNL1       -0.0157
     20 C           0.5591   -0.4478    0.3030 C.3     1  UNL1       -0.0297
     21 C           1.1371   -1.1951    1.4646 C.3     1  UNL1       -0.0454
     22 C           2.5665   -1.5646    1.3124 C.3     1  UNL1       -0.0270
     23 C           3.3648   -0.6541    0.4515 C.ar    1  UNL1       -0.0404
     24 C           2.8274    0.4299   -0.2152 C.ar    1  UNL1       -0.0406
     25 C           3.6793    1.1944   -0.9816 C.ar    1  UNL1       -0.0545
     26 C           5.0405    0.9256   -1.1116 C.ar    1  UNL1       -0.0167
     27 C           5.5482   -0.1625   -0.4347 C.ar    1  UNL1        0.1581
     28 O           6.8854   -0.5191   -0.4946 O.3     1  UNL1       -0.3338
     29 S           8.0658    0.0460    0.5671 S.O2    1  UNL1        0.1892
     30 N           9.3435   -1.1378    0.6013 N.3     1  UNL1       -0.1739
     31 O           7.5367    0.2474    1.9611 O.2     1  UNL1       -0.1191
     32 O           8.6806    1.2952    0.0151 O.2     1  UNL1       -0.1191
     33 C           4.7116   -0.9601    0.3522 C.ar    1  UNL1       -0.0136
     34 H           1.3142    1.4574    0.7692 H       1  UNL1        0.0352
     35 H           1.5150    1.3911   -2.1513 H       1  UNL1        0.0271
     36 H           0.5591    2.4761   -1.1324 H       1  UNL1        0.0271
     37 H          -0.1469   -0.0696   -2.5801 H       1  UNL1        0.0275
     38 H          -0.9780    1.4993   -2.4638 H       1  UNL1        0.0275
     39 H          -2.9762   -1.0421   -1.7542 H       1  UNL1        0.0240
     40 H          -1.9299   -1.8991   -0.5944 H       1  UNL1        0.0240
     41 H          -1.3162   -1.5006   -2.1951 H       1  UNL1        0.0240
     42 H          -4.9928    1.7506    1.5821 H       1  UNL1        0.0519
     43 H          -4.5802    2.5794    0.0060 H       1  UNL1        0.0519
     44 H          -5.5431    1.4833   -2.1041 H       1  UNL1        0.0622
     45 H          -7.3835    0.0677   -3.0338 H       1  UNL1        0.0633
     46 H          -8.6573   -1.4317   -1.5557 H       1  UNL1        0.0829
     47 H          -6.4051   -0.2120    1.6746 H       1  UNL1        0.0833
     48 H          -1.2492   -0.4144    2.5300 H       1  UNL1        0.0362
     49 H          -1.6812   -1.7284    1.4229 H       1  UNL1        0.0362
     50 H          -0.7516    1.1521    0.9231 H       1  UNL1        0.0318
     51 H           0.5689   -1.1361   -0.5738 H       1  UNL1        0.0310
     52 H           0.5653   -2.1384    1.5905 H       1  UNL1        0.0271
     53 H           1.0419   -0.6468    2.4256 H       1  UNL1        0.0271
     54 H           2.6958   -2.6014    0.9028 H       1  UNL1        0.0313
     55 H           3.0780   -1.6052    2.3063 H       1  UNL1        0.0313
     56 H           3.3400    2.0595   -1.5351 H       1  UNL1        0.0622
     57 H           5.7020    1.5286   -1.7135 H       1  UNL1        0.0655
     58 H           9.6284   -1.3258   -0.3787 H       1  UNL1        0.1472
     59 H           8.9513   -2.0127    1.0048 H       1  UNL1        0.1472
     60 H           5.1462   -1.8192    0.8784 H       1  UNL1        0.0658
@<TRIPOS>BOND
     1     1     2    1
     2     2     3    1
     3     3     4    1
     4     4     5    1
     5     4     6    1
     6     6     7    2
     7     6     8   am
     8     8     9    1
     9     9    10    1
    10    10    11   ar
    11    11    12   ar
    12    12    13   ar
    13    13    14   ar
    14    14    15   ar
    15     8    16   am
    16    16    17    2
    17    16    18    1
    18    18    19    1
    19    19    20    1
    20    20    21    1
    21    21    22    1
    22    22    23    1
    23    23    24   ar
    24    24    25   ar
    25    25    26   ar
    26    26    27   ar
    27    27    28    1
    28    28    29    1
    29    29    30    1
    30    29    31    2
    31    29    32    2
    32    27    33   ar
    33    20     1    1
    34    33    23   ar
    35    24     1    1
    36    19     4    1
    37    15    10   ar
    38     1    34    1
    39     2    35    1
    40     2    36    1
    41     3    37    1
    42     3    38    1
    43     5    39    1
    44     5    40    1
    45     5    41    1
    46     9    42    1
    47     9    43    1
    48    11    44    1
    49    12    45    1
    50    13    46    1
    51    15    47    1
    52    18    48    1
    53    18    49    1
    54    19    50    1
    55    20    51    1
    56    21    52    1
    57    21    53    1
    58    22    54    1
    59    22    55    1
    60    25    56    1
    61    26    57    1
    62    30    58    1
    63    30    59    1
    64    33    60    1
