
     RDKit          3D

 60 64  0  0  0  0  0  0  0  0999 V2000
    1.4003    0.7442   -0.1027 C   0  0  1  0  0  0  0  0  0  0  0  0
    0.7811    1.3841   -1.3045 C   0  0  0  0  0  0  0  0  0  0  0  0
   -0.4424    0.7281   -1.8368 C   0  0  0  0  0  0  0  0  0  0  0  0
   -1.4300    0.2369   -0.8411 C   0  0  2  0  0  0  0  0  0  0  0  0
   -1.9470   -1.1111   -1.3440 C   0  0  0  0  0  0  0  0  0  0  0  0
   -2.6390    1.0929   -0.6968 C   0  0  0  0  0  0  0  0  0  0  0  0
   -2.8604    1.9352   -1.6053 O   0  0  0  0  0  0  0  0  0  0  0  0
   -3.4467    0.8795    0.4708 N   0  0  0  0  0  0  0  0  0  0  0  0
   -4.7004    1.5967    0.5048 C   0  0  0  0  0  0  0  0  0  0  0  0
   -5.7786    0.7852   -0.1124 C   0  0  0  0  0  0  0  0  0  0  0  0
   -6.0946    0.8307   -1.4507 C   0  0  0  0  0  0  0  0  0  0  0  0
   -7.1149    0.0529   -1.9942 C   0  0  0  0  0  0  0  0  0  0  0  0
   -7.8462   -0.7985   -1.1842 C   0  0  0  0  0  0  0  0  0  0  0  0
   -7.5419   -0.8449    0.1150 N   0  0  0  0  0  0  0  0  0  0  0  0
   -6.5614   -0.0932    0.6206 C   0  0  0  0  0  0  0  0  0  0  0  0
   -3.0011    0.0050    1.5094 C   0  0  0  0  0  0  0  0  0  0  0  0
   -3.7748   -0.2293    2.4754 O   0  0  0  0  0  0  0  0  0  0  0  0
   -1.6570   -0.6457    1.5025 C   0  0  0  0  0  0  0  0  0  0  0  0
   -0.8065    0.0923    0.5338 C   0  0  1  0  0  0  0  0  0  0  0  0
    0.5591   -0.4478    0.3030 C   0  0  2  0  0  0  0  0  0  0  0  0
    1.1371   -1.1951    1.4646 C   0  0  0  0  0  0  0  0  0  0  0  0
    2.5665   -1.5646    1.3124 C   0  0  0  0  0  0  0  0  0  0  0  0
    3.3648   -0.6541    0.4515 C   0  0  0  0  0  0  0  0  0  0  0  0
    2.8274    0.4299   -0.2152 C   0  0  0  0  0  0  0  0  0  0  0  0
    3.6793    1.1944   -0.9816 C   0  0  0  0  0  0  0  0  0  0  0  0
    5.0405    0.9256   -1.1116 C   0  0  0  0  0  0  0  0  0  0  0  0
    5.5482   -0.1625   -0.4347 C   0  0  0  0  0  0  0  0  0  0  0  0
    6.8854   -0.5191   -0.4946 O   0  0  0  0  0  0  0  0  0  0  0  0
    8.0658    0.0460    0.5671 S   0  0  0  0  0  0  0  0  0  0  0  0
    9.3435   -1.1378    0.6013 N   0  0  0  0  0  0  0  0  0  0  0  0
    7.5367    0.2474    1.9611 O   0  0  0  0  0  0  0  0  0  0  0  0
    8.6806    1.2952    0.0151 O   0  0  0  0  0  0  0  0  0  0  0  0
    4.7116   -0.9601    0.3522 C   0  0  0  0  0  0  0  0  0  0  0  0
    1.3142    1.4574    0.7692 H   0  0  0  0  0  0  0  0  0  0  0  0
    1.5150    1.3911   -2.1513 H   0  0  0  0  0  0  0  0  0  0  0  0
    0.5591    2.4761   -1.1324 H   0  0  0  0  0  0  0  0  0  0  0  0
   -0.1469   -0.0696   -2.5801 H   0  0  0  0  0  0  0  0  0  0  0  0
   -0.9780    1.4993   -2.4638 H   0  0  0  0  0  0  0  0  0  0  0  0
   -2.9762   -1.0421   -1.7542 H   0  0  0  0  0  0  0  0  0  0  0  0
   -1.9299   -1.8991   -0.5944 H   0  0  0  0  0  0  0  0  0  0  0  0
   -1.3162   -1.5006   -2.1951 H   0  0  0  0  0  0  0  0  0  0  0  0
   -4.9928    1.7506    1.5821 H   0  0  0  0  0  0  0  0  0  0  0  0
   -4.5802    2.5794    0.0060 H   0  0  0  0  0  0  0  0  0  0  0  0
   -5.5431    1.4833   -2.1041 H   0  0  0  0  0  0  0  0  0  0  0  0
   -7.3835    0.0677   -3.0338 H   0  0  0  0  0  0  0  0  0  0  0  0
   -8.6573   -1.4317   -1.5557 H   0  0  0  0  0  0  0  0  0  0  0  0
   -6.4051   -0.2120    1.6746 H   0  0  0  0  0  0  0  0  0  0  0  0
   -1.2492   -0.4144    2.5300 H   0  0  0  0  0  0  0  0  0  0  0  0
   -1.6812   -1.7284    1.4229 H   0  0  0  0  0  0  0  0  0  0  0  0
   -0.7516    1.1521    0.9231 H   0  0  0  0  0  0  0  0  0  0  0  0
    0.5689   -1.1361   -0.5738 H   0  0  0  0  0  0  0  0  0  0  0  0
    0.5653   -2.1384    1.5905 H   0  0  0  0  0  0  0  0  0  0  0  0
    1.0419   -0.6468    2.4256 H   0  0  0  0  0  0  0  0  0  0  0  0
    2.6958   -2.6014    0.9028 H   0  0  0  0  0  0  0  0  0  0  0  0
    3.0780   -1.6052    2.3063 H   0  0  0  0  0  0  0  0  0  0  0  0
    3.3400    2.0595   -1.5351 H   0  0  0  0  0  0  0  0  0  0  0  0
    5.7020    1.5286   -1.7135 H   0  0  0  0  0  0  0  0  0  0  0  0
    9.6284   -1.3258   -0.3787 H   0  0  0  0  0  0  0  0  0  0  0  0
    8.9513   -2.0127    1.0048 H   0  0  0  0  0  0  0  0  0  0  0  0
    5.1462   -1.8192    0.8784 H   0  0  0  0  0  0  0  0  0  0  0  0
  1  2  1  0
  2  3  1  0
  3  4  1  0
  4  5  1  6
  4  6  1  0
  6  7  2  0
  6  8  1  0
  8  9  1  0
  9 10  1  0
 10 11  2  0
 11 12  1  0
 12 13  2  0
 13 14  1  0
 14 15  2  0
  8 16  1  0
 16 17  2  0
 16 18  1  0
 18 19  1  0
 19 20  1  0
 20 21  1  0
 21 22  1  0
 22 23  1  0
 23 24  2  0
 24 25  1  0
 25 26  2  0
 26 27  1  0
 27 28  1  0
 28 29  1  0
 29 30  1  0
 29 31  2  0
 29 32  2  0
 27 33  2  0
 20  1  1  0
 33 23  1  0
 24  1  1  0
 19  4  1  0
 15 10  1  0
  1 34  1  1
  2 35  1  0
  2 36  1  0
  3 37  1  0
  3 38  1  0
  5 39  1  0
  5 40  1  0
  5 41  1  0
  9 42  1  0
  9 43  1  0
 11 44  1  0
 12 45  1  0
 13 46  1  0
 15 47  1  0
 18 48  1  0
 18 49  1  0
 19 50  1  1
 20 51  1  6
 21 52  1  0
 21 53  1  0
 22 54  1  0
 22 55  1  0
 25 56  1  0
 26 57  1  0
 30 58  1  0
 30 59  1  0
 33 60  1  0
M  END
$$$$
