@<TRIPOS>MOLECULE
*****
 37 40 0 0 0
SMALL
GASTEIGER

@<TRIPOS>ATOM
      1 CL          3.0011   -4.5590    0.3364 Cl      1  UNL1       -0.0835
      2 C           3.2585   -2.8947   -0.1262 C.ar    1  UNL1        0.0416
      3 C           4.5233   -2.4740   -0.5214 C.ar    1  UNL1       -0.0433
      4 C           4.6794   -1.1351   -0.8828 C.ar    1  UNL1       -0.0597
      5 C           3.6338   -0.2409   -0.8578 C.ar    1  UNL1       -0.0510
      6 C           2.3947   -0.6621   -0.4684 C.ar    1  UNL1        0.0206
      7 C           1.2901    0.2941   -0.4448 C.ar    1  UNL1        0.1624
      8 N           0.0517   -0.0551   -0.0748 N.ar    1  UNL1       -0.2119
      9 C          -0.9907    0.7937   -0.0397 C.ar    1  UNL1        0.1345
     10 N          -2.2759    0.3753    0.3588 N.pl3   1  UNL1       -0.2988
     11 C          -2.6206   -0.9527    0.6693 C.ar    1  UNL1        0.0353
     12 C          -3.7179   -1.2220    1.4994 C.ar    1  UNL1       -0.0224
     13 C          -4.0901   -2.5086    1.8069 C.ar    1  UNL1        0.0293
     14 N          -3.4012   -3.5463    1.3119 N.ar    1  UNL1       -0.2631
     15 C          -2.3528   -3.3224    0.5191 C.ar    1  UNL1        0.0293
     16 C          -1.9418   -2.0233    0.1818 C.ar    1  UNL1       -0.0224
     17 C          -0.7293    2.1068   -0.4174 C.ar    1  UNL1        0.0405
     18 C          -1.7467    3.0340   -0.4082 C.ar    1  UNL1       -0.0493
     19 C          -1.4874    4.3460   -0.7861 C.ar    1  UNL1       -0.0610
     20 C          -0.2294    4.7480   -1.1732 C.ar    1  UNL1       -0.0597
     21 C           0.7564    3.7867   -1.1670 C.ar    1  UNL1       -0.0356
     22 C           0.5611    2.4687   -0.8025 C.ar    1  UNL1        0.0767
     23 N           1.5242    1.5646   -0.8058 N.ar    1  UNL1       -0.2271
     24 C           2.2269   -1.9822   -0.1087 C.ar    1  UNL1       -0.0327
     25 H           5.3619   -3.1597   -0.5490 H       1  UNL1        0.0632
     26 H           5.6638   -0.7793   -1.1977 H       1  UNL1        0.0618
     27 H           3.8558    0.7900   -1.1592 H       1  UNL1        0.0625
     28 H          -3.0426    1.0702    0.4407 H       1  UNL1        0.1536
     29 H          -4.2636   -0.3662    1.8908 H       1  UNL1        0.0651
     30 H          -4.9353   -2.6855    2.4464 H       1  UNL1        0.0830
     31 H          -1.8262   -4.1996    0.1421 H       1  UNL1        0.0830
     32 H          -1.0959   -1.9717   -0.4680 H       1  UNL1        0.0651
     33 H          -2.7577    2.8198   -0.1248 H       1  UNL1        0.0625
     34 H          -2.3060    5.0835   -0.7765 H       1  UNL1        0.0618
     35 H           0.0126    5.7575   -1.4741 H       1  UNL1        0.0618
     36 H           1.7714    4.0440   -1.4628 H       1  UNL1        0.0639
     37 H           1.2446   -2.3426    0.2065 H       1  UNL1        0.0639
@<TRIPOS>BOND
     1     1     2    1
     2     2     3   ar
     3     3     4   ar
     4     4     5   ar
     5     5     6   ar
     6     6     7    1
     7     7     8   ar
     8     8     9   ar
     9     9    10    1
    10    10    11    1
    11    11    12   ar
    12    12    13   ar
    13    13    14   ar
    14    14    15   ar
    15    15    16   ar
    16     9    17   ar
    17    17    18   ar
    18    18    19   ar
    19    19    20   ar
    20    20    21   ar
    21    21    22   ar
    22    22    23   ar
    23     6    24   ar
    24    24     2   ar
    25    23     7   ar
    26    16    11   ar
    27    22    17   ar
    28     3    25    1
    29     4    26    1
    30     5    27    1
    31    10    28    1
    32    12    29    1
    33    13    30    1
    34    15    31    1
    35    16    32    1
    36    18    33    1
    37    19    34    1
    38    20    35    1
    39    21    36    1
    40    24    37    1
