
     RDKit          3D

 36 37  0  0  0  0  0  0  0  0999 V2000
    5.4141    2.3851   -0.3635 O   0  0  0  0  0  0  0  0  0  0  0  0
    5.0262    1.3438    0.2193 C   0  0  0  0  0  0  0  0  0  0  0  0
    3.7132    0.8058   -0.0907 C   0  0  0  0  0  0  0  0  0  0  0  0
    3.1803   -0.2699    0.4388 C   0  0  0  0  0  0  0  0  0  0  0  0
    1.8599   -0.8072    0.1242 C   0  0  0  0  0  0  0  0  0  0  0  0
    1.4735   -1.9632    0.7956 C   0  0  0  0  0  0  0  0  0  0  0  0
    0.2322   -2.4871    0.5141 C   0  0  0  0  0  0  0  0  0  0  0  0
   -0.5972   -1.8790   -0.4064 C   0  0  0  0  0  0  0  0  0  0  0  0
   -0.2407   -0.7367   -1.0838 C   0  0  0  0  0  0  0  0  0  0  0  0
   -1.2801    0.0391   -2.2480 S   0  0  0  0  0  6  0  0  0  0  0  0
   -2.1572   -0.9869   -2.9543 O   0  0  0  0  0  0  0  0  0  0  0  0
   -0.4720    0.6862   -3.3395 O   0  0  0  0  0  0  0  0  0  0  0  0
   -2.3017    1.2115   -1.5232 N   0  0  0  0  0  0  0  0  0  0  0  0
   -3.2496    0.8563   -0.5330 C   0  0  0  0  0  0  0  0  0  0  0  0
   -3.4018    1.6056    0.6356 C   0  0  0  0  0  0  0  0  0  0  0  0
   -4.3124    1.2689    1.5940 C   0  0  0  0  0  0  0  0  0  0  0  0
   -5.1300    0.1793    1.4689 C   0  0  0  0  0  0  0  0  0  0  0  0
   -5.0092   -0.5834    0.3311 C   0  0  0  0  0  0  0  0  0  0  0  0
   -4.0874   -0.2519   -0.6507 C   0  0  0  0  0  0  0  0  0  0  0  0
    1.0243   -0.2153   -0.7874 C   0  0  0  0  0  0  0  0  0  0  0  0
    5.8940    0.7414    1.1565 N   0  0  0  0  0  0  0  0  0  0  0  0
    7.1226    1.3015    1.4032 O   0  0  0  0  0  0  0  0  0  0  0  0
    3.0932    1.3284   -0.8307 H   0  0  0  0  0  0  0  0  0  0  0  0
    3.8230   -0.7740    1.1771 H   0  0  0  0  0  0  0  0  0  0  0  0
    2.1522   -2.4083    1.5088 H   0  0  0  0  0  0  0  0  0  0  0  0
   -0.0450   -3.3870    1.0498 H   0  0  0  0  0  0  0  0  0  0  0  0
   -1.5788   -2.3206   -0.6082 H   0  0  0  0  0  0  0  0  0  0  0  0
   -2.2274    2.2016   -1.8125 H   0  0  0  0  0  0  0  0  0  0  0  0
   -2.7811    2.4666    0.7729 H   0  0  0  0  0  0  0  0  0  0  0  0
   -4.4130    1.8652    2.4930 H   0  0  0  0  0  0  0  0  0  0  0  0
   -5.8579   -0.1077    2.2127 H   0  0  0  0  0  0  0  0  0  0  0  0
   -5.6379   -1.4528    0.1955 H   0  0  0  0  0  0  0  0  0  0  0  0
   -4.0018   -0.8566   -1.5385 H   0  0  0  0  0  0  0  0  0  0  0  0
    1.2930    0.6729   -1.3188 H   0  0  0  0  0  0  0  0  0  0  0  0
    5.6449   -0.1131    1.6728 H   0  0  0  0  0  0  0  0  0  0  0  0
    7.8359    0.6414    1.2675 H   0  0  0  0  0  0  0  0  0  0  0  0
  1  2  2  0
  2  3  1  0
  3  4  2  0
  4  5  1  0
  5  6  2  0
  6  7  1  0
  7  8  2  0
  8  9  1  0
  9 10  1  0
 10 11  2  0
 10 12  2  0
 10 13  1  0
 13 14  1  0
 14 15  2  0
 15 16  1  0
 16 17  2  0
 17 18  1  0
 18 19  2  0
  9 20  2  0
  2 21  1  0
 21 22  1  0
 20  5  1  0
 19 14  1  0
  3 23  1  0
  4 24  1  0
  6 25  1  0
  7 26  1  0
  8 27  1  0
 13 28  1  0
 15 29  1  0
 16 30  1  0
 17 31  1  0
 18 32  1  0
 19 33  1  0
 20 34  1  0
 21 35  1  0
 22 36  1  0
M  END
$$$$
