@<TRIPOS>MOLECULE
*****
 36 37 0 0 0
SMALL
GASTEIGER

@<TRIPOS>ATOM
      1 O           5.4141    2.3851   -0.3635 O.2     1  UNL1       -0.2687
      2 C           5.0262    1.3438    0.2193 C.2     1  UNL1        0.2593
      3 C           3.7132    0.8058   -0.0907 C.2     1  UNL1        0.0027
      4 C           3.1803   -0.2699    0.4388 C.2     1  UNL1       -0.0496
      5 C           1.8599   -0.8072    0.1242 C.ar    1  UNL1       -0.0230
      6 C           1.4735   -1.9632    0.7956 C.ar    1  UNL1       -0.0545
      7 C           0.2322   -2.4871    0.5141 C.ar    1  UNL1       -0.0593
      8 C          -0.5972   -1.8790   -0.4064 C.ar    1  UNL1       -0.0350
      9 C          -0.2407   -0.7367   -1.0838 C.ar    1  UNL1        0.1091
     10 S          -1.2801    0.0391   -2.2480 S.O2    1  UNL1        0.0724
     11 O          -2.1572   -0.9869   -2.9543 O.2     1  UNL1       -0.1500
     12 O          -0.4720    0.6862   -3.3395 O.2     1  UNL1       -0.1500
     13 N          -2.3017    1.2115   -1.5232 N.pl3   1  UNL1       -0.2163
     14 C          -3.2496    0.8563   -0.5330 C.ar    1  UNL1        0.0480
     15 C          -3.4018    1.6056    0.6356 C.ar    1  UNL1       -0.0393
     16 C          -4.3124    1.2689    1.5940 C.ar    1  UNL1       -0.0600
     17 C          -5.1300    0.1793    1.4689 C.ar    1  UNL1       -0.0616
     18 C          -5.0092   -0.5834    0.3311 C.ar    1  UNL1       -0.0600
     19 C          -4.0874   -0.2519   -0.6507 C.ar    1  UNL1       -0.0393
     20 C           1.0243   -0.2153   -0.7874 C.ar    1  UNL1       -0.0279
     21 N           5.8940    0.7414    1.1565 N.am    1  UNL1       -0.1940
     22 O           7.1226    1.3015    1.4032 O.3     1  UNL1       -0.2949
     23 H           3.0932    1.3284   -0.8307 H       1  UNL1        0.0670
     24 H           3.8230   -0.7740    1.1771 H       1  UNL1        0.0625
     25 H           2.1522   -2.4083    1.5088 H       1  UNL1        0.0623
     26 H          -0.0450   -3.3870    1.0498 H       1  UNL1        0.0618
     27 H          -1.5788   -2.3206   -0.6082 H       1  UNL1        0.0637
     28 H          -2.2274    2.2016   -1.8125 H       1  UNL1        0.1737
     29 H          -2.7811    2.4666    0.7729 H       1  UNL1        0.0636
     30 H          -4.4130    1.8652    2.4930 H       1  UNL1        0.0618
     31 H          -5.8579   -0.1077    2.2127 H       1  UNL1        0.0618
     32 H          -5.6379   -1.4528    0.1955 H       1  UNL1        0.0618
     33 H          -4.0018   -0.8566   -1.5385 H       1  UNL1        0.0636
     34 H           1.2930    0.6729   -1.3188 H       1  UNL1        0.0643
     35 H           5.6449   -0.1131    1.6728 H       1  UNL1        0.1825
     36 H           7.8359    0.6414    1.2675 H       1  UNL1        0.2414
@<TRIPOS>BOND
     1     1     2    2
     2     2     3    1
     3     3     4    2
     4     4     5    1
     5     5     6   ar
     6     6     7   ar
     7     7     8   ar
     8     8     9   ar
     9     9    10    1
    10    10    11    2
    11    10    12    2
    12    10    13    1
    13    13    14    1
    14    14    15   ar
    15    15    16   ar
    16    16    17   ar
    17    17    18   ar
    18    18    19   ar
    19     9    20   ar
    20     2    21   am
    21    21    22    1
    22    20     5   ar
    23    19    14   ar
    24     3    23    1
    25     4    24    1
    26     6    25    1
    27     7    26    1
    28     8    27    1
    29    13    28    1
    30    15    29    1
    31    16    30    1
    32    17    31    1
    33    18    32    1
    34    19    33    1
    35    20    34    1
    36    21    35    1
    37    22    36    1
