@<TRIPOS>MOLECULE
*****
 50 53 0 0 0
SMALL
GASTEIGER

@<TRIPOS>ATOM
      1 O          -2.7033    2.4197   -1.7183 O.2     1  UNL1       -0.2739
      2 C          -2.8336    1.7619   -0.6235 C.2     1  UNL1        0.2328
      3 C          -1.8691    1.9582    0.4842 C.3     1  UNL1        0.0865
      4 C          -0.4740    1.6095   -0.0187 C.3     1  UNL1       -0.0122
      5 C           0.1539    0.9652    1.1564 C.3     1  UNL1        0.0249
      6 N           1.1180   -0.0141    0.9599 N.3     1  UNL1       -0.2952
      7 C           0.8622   -1.1924    0.2726 C.3     1  UNL1        0.0151
      8 C           2.0453   -1.4662   -0.6685 C.3     1  UNL1        0.0277
      9 N           3.2658   -1.0335   -0.0427 N.pl3   1  UNL1       -0.2972
     10 C           4.4008   -0.6775   -0.8020 C.ar    1  UNL1        0.2178
     11 N           4.3751   -0.7334   -2.1584 N.ar    1  UNL1       -0.2228
     12 C           5.4479   -0.3964   -2.8640 C.ar    1  UNL1        0.0326
     13 C           6.6223    0.0196   -2.2835 C.ar    1  UNL1       -0.0253
     14 C           6.6544    0.0785   -0.9049 C.ar    1  UNL1        0.0326
     15 N           5.5568   -0.2684   -0.2435 N.ar    1  UNL1       -0.2228
     16 C           3.3200   -0.9656    1.3933 C.3     1  UNL1        0.0277
     17 C           2.2068   -0.0810    1.8619 C.3     1  UNL1        0.0151
     18 C          -1.0218    0.3883    1.9165 C.3     1  UNL1        0.0123
     19 N          -2.1896    1.1420    1.5890 N.3     1  UNL1       -0.3041
     20 N          -3.8938    0.8408   -0.4515 N.am    1  UNL1       -0.2943
     21 C          -4.8815    0.6016   -1.5213 C.3     1  UNL1        0.0204
     22 C          -5.4892   -0.7454   -1.1982 C.3     1  UNL1        0.0281
     23 C          -5.5559   -0.6974    0.2914 C.3     1  UNL1        0.2657
     24 F          -5.6320   -1.9515    0.8226 F       1  UNL1       -0.2039
     25 F          -6.6168    0.1124    0.6621 F       1  UNL1       -0.2039
     26 C          -4.2459    0.0051    0.6639 C.3     1  UNL1        0.0781
     27 H          -1.8904    3.0411    0.8057 H       1  UNL1        0.0557
     28 H          -0.5772    1.0180   -0.9134 H       1  UNL1        0.0300
     29 H           0.0041    2.5711   -0.2958 H       1  UNL1        0.0300
     30 H           0.5697    1.7657    1.8128 H       1  UNL1        0.0476
     31 H           0.8850   -2.0578    0.9980 H       1  UNL1        0.0442
     32 H          -0.0428   -1.2891   -0.3007 H       1  UNL1        0.0442
     33 H           1.8741   -0.9889   -1.6544 H       1  UNL1        0.0477
     34 H           2.1133   -2.5628   -0.8167 H       1  UNL1        0.0477
     35 H           5.4150   -0.4455   -3.9537 H       1  UNL1        0.0831
     36 H           7.4761    0.2864   -2.8836 H       1  UNL1        0.0648
     37 H           7.5387    0.3946   -0.3861 H       1  UNL1        0.0831
     38 H           3.1592   -1.9688    1.8548 H       1  UNL1        0.0477
     39 H           4.2700   -0.5308    1.7679 H       1  UNL1        0.0477
     40 H           1.8129   -0.4575    2.8474 H       1  UNL1        0.0442
     41 H           2.5526    0.9618    2.0697 H       1  UNL1        0.0442
     42 H          -0.8321    0.4384    3.0277 H       1  UNL1        0.0440
     43 H          -1.1248   -0.6822    1.6593 H       1  UNL1        0.0440
     44 H          -2.5704    1.6744    2.4138 H       1  UNL1        0.1227
     45 H          -4.3289    0.6070   -2.4629 H       1  UNL1        0.0466
     46 H          -5.6286    1.4159   -1.4409 H       1  UNL1        0.0466
     47 H          -4.8284   -1.5203   -1.6020 H       1  UNL1        0.0338
     48 H          -6.5121   -0.7499   -1.6367 H       1  UNL1        0.0338
     49 H          -3.4672   -0.7482    0.9221 H       1  UNL1        0.0523
     50 H          -4.4905    0.5612    1.5926 H       1  UNL1        0.0523
@<TRIPOS>BOND
     1     1     2    2
     2     2     3    1
     3     3     4    1
     4     4     5    1
     5     5     6    1
     6     6     7    1
     7     7     8    1
     8     8     9    1
     9     9    10    1
    10    10    11   ar
    11    11    12   ar
    12    12    13   ar
    13    13    14   ar
    14    14    15   ar
    15     9    16    1
    16    16    17    1
    17     5    18    1
    18    18    19    1
    19     2    20   am
    20    20    21    1
    21    21    22    1
    22    22    23    1
    23    23    24    1
    24    23    25    1
    25    23    26    1
    26    19     3    1
    27    26    20    1
    28    17     6    1
    29    15    10   ar
    30     3    27    1
    31     4    28    1
    32     4    29    1
    33     5    30    1
    34     7    31    1
    35     7    32    1
    36     8    33    1
    37     8    34    1
    38    12    35    1
    39    13    36    1
    40    14    37    1
    41    16    38    1
    42    16    39    1
    43    17    40    1
    44    17    41    1
    45    18    42    1
    46    18    43    1
    47    19    44    1
    48    21    45    1
    49    21    46    1
    50    22    47    1
    51    22    48    1
    52    26    49    1
    53    26    50    1
