@<TRIPOS>MOLECULE
*****
 41 43 0 0 0
SMALL
GASTEIGER

@<TRIPOS>ATOM
      1 C           4.8561    1.5026    0.6420 C.3     1  UNL1       -0.0158
      2 N           3.7012    1.2105   -0.1852 N.3     1  UNL1       -0.3187
      3 C           3.4280   -0.2026   -0.0877 C.3     1  UNL1       -0.0009
      4 C           2.2364   -0.6155   -0.9167 C.3     1  UNL1       -0.0213
      5 C           0.9745    0.0723   -0.5168 C.2     1  UNL1       -0.0745
      6 C          -0.2728   -0.0431   -0.0616 C.2     1  UNL1       -0.0141
      7 C          -1.0835    1.1924    0.1341 C.ar    1  UNL1       -0.0144
      8 C          -0.2618    2.2314    0.5044 C.ar    1  UNL1       -0.0538
      9 C          -0.9083    3.4098    0.6795 C.ar    1  UNL1       -0.0612
     10 C          -2.2838    3.5164    0.4921 C.ar    1  UNL1       -0.0615
     11 C          -3.0554    2.4118    0.1158 C.ar    1  UNL1       -0.0580
     12 C          -2.4421    1.1657   -0.0805 C.ar    1  UNL1       -0.0393
     13 C          -3.4995    0.2188   -0.4425 C.3     1  UNL1       -0.0231
     14 C          -3.1373   -1.1361   -0.8913 C.3     1  UNL1       -0.0231
     15 C          -2.0175   -1.8120   -0.2266 C.ar    1  UNL1       -0.0393
     16 C          -2.2865   -3.1588    0.0637 C.ar    1  UNL1       -0.0580
     17 C          -1.3291   -3.9680    0.6879 C.ar    1  UNL1       -0.0615
     18 C          -0.0806   -3.4843    1.0473 C.ar    1  UNL1       -0.0612
     19 C           0.2717   -2.1756    0.8025 C.ar    1  UNL1       -0.0538
     20 C          -0.7236   -1.4401    0.1840 C.ar    1  UNL1       -0.0144
     21 H           5.4842    0.5916    0.6615 H       1  UNL1        0.0388
     22 H           4.4327    1.7358    1.6624 H       1  UNL1        0.0388
     23 H           5.4149    2.3811    0.2600 H       1  UNL1        0.0388
     24 H           3.8241    1.5066   -1.1746 H       1  UNL1        0.1216
     25 H           3.2096   -0.3921    0.9864 H       1  UNL1        0.0427
     26 H           4.3309   -0.7834   -0.3619 H       1  UNL1        0.0427
     27 H           2.5475   -0.3501   -1.9860 H       1  UNL1        0.0320
     28 H           2.1112   -1.7024   -1.0306 H       1  UNL1        0.0320
     29 H           1.3176    1.0674   -0.7526 H       1  UNL1        0.0579
     30 H           0.7954    2.0742    0.6510 H       1  UNL1        0.0624
     31 H          -0.3475    4.3005    0.9738 H       1  UNL1        0.0618
     32 H          -2.7828    4.4881    0.6415 H       1  UNL1        0.0618
     33 H          -4.1180    2.5792   -0.0087 H       1  UNL1        0.0620
     34 H          -4.0609    0.7027   -1.2918 H       1  UNL1        0.0316
     35 H          -4.2462    0.1962    0.3919 H       1  UNL1        0.0316
     36 H          -3.0267   -1.1490   -2.0012 H       1  UNL1        0.0316
     37 H          -4.0373   -1.7832   -0.7123 H       1  UNL1        0.0316
     38 H          -3.2330   -3.5965   -0.1873 H       1  UNL1        0.0620
     39 H          -1.5619   -5.0217    0.9057 H       1  UNL1        0.0618
     40 H           0.6762   -4.0857    1.5292 H       1  UNL1        0.0618
     41 H           1.1836   -1.6551    1.0296 H       1  UNL1        0.0624
@<TRIPOS>BOND
     1     1     2    1
     2     2     3    1
     3     3     4    1
     4     4     5    1
     5     5     6    2
     6     6     7    1
     7     7     8   ar
     8     8     9   ar
     9     9    10   ar
    10    10    11   ar
    11    11    12   ar
    12    12    13    1
    13    13    14    1
    14    14    15    1
    15    15    16   ar
    16    16    17   ar
    17    17    18   ar
    18    18    19   ar
    19    19    20   ar
    20    20     6    1
    21    12     7   ar
    22    20    15   ar
    23     1    21    1
    24     1    22    1
    25     1    23    1
    26     2    24    1
    27     3    25    1
    28     3    26    1
    29     4    27    1
    30     4    28    1
    31     5    29    1
    32     8    30    1
    33     9    31    1
    34    10    32    1
    35    11    33    1
    36    13    34    1
    37    13    35    1
    38    14    36    1
    39    14    37    1
    40    16    38    1
    41    17    39    1
    42    18    40    1
    43    19    41    1
