
     RDKit          3D

 53 55  0  0  0  0  0  0  0  0999 V2000
   -2.6935   -4.2551   -0.0634 O   0  0  0  0  0  0  0  0  0  0  0  0
   -2.6294   -3.5092   -1.0657 C   0  0  0  0  0  0  0  0  0  0  0  0
   -3.0557   -4.0210   -2.2840 O   0  0  0  0  0  0  0  0  0  0  0  0
   -2.1066   -2.1329   -0.8980 C   0  0  0  0  0  0  0  0  0  0  0  0
   -1.7515   -1.9446    0.5389 C   0  0  0  0  0  0  0  0  0  0  0  0
   -1.2090   -0.6193    0.9272 C   0  0  0  0  0  0  0  0  0  0  0  0
   -2.1280    0.5096    0.6516 C   0  0  0  0  0  0  0  0  0  0  0  0
   -3.1092    0.8940    1.5253 C   0  0  0  0  0  0  0  0  0  0  0  0
   -3.9604    1.9589    1.2599 C   0  0  0  0  0  0  0  0  0  0  0  0
   -3.7951    2.6368    0.0731 C   0  0  0  0  0  0  0  0  0  0  0  0
   -4.7166    3.7788   -0.1989 C   0  0  0  0  0  0  0  0  0  0  0  0
   -4.1075    4.9977    0.0397 F   0  0  0  0  0  0  0  0  0  0  0  0
   -5.1004    3.7045   -1.5284 F   0  0  0  0  0  0  0  0  0  0  0  0
   -5.8422    3.7110    0.5722 F   0  0  0  0  0  0  0  0  0  0  0  0
   -2.8145    2.2611   -0.8125 C   0  0  0  0  0  0  0  0  0  0  0  0
   -1.9987    1.2161   -0.5239 C   0  0  0  0  0  0  0  0  0  0  0  0
   -0.8313   -0.6407    2.3850 C   0  0  0  0  0  0  0  0  0  0  0  0
   -0.0741   -1.9077    2.7135 C   0  0  0  0  0  0  0  0  0  0  0  0
    1.1409   -1.9762    1.8609 C   0  0  0  0  0  0  0  0  0  0  0  0
    1.2121   -0.9874    0.8089 N   0  0  0  0  0  0  0  0  0  0  0  0
    2.5017   -0.6023    0.3584 C   0  0  0  0  0  0  0  0  0  0  0  0
    3.5343   -1.1066    0.8604 O   0  0  0  0  0  0  0  0  0  0  0  0
    2.7154    0.3601   -0.6702 N   0  0  0  0  0  0  0  0  0  0  0  0
    4.0007    0.7482   -1.1237 C   0  0  0  0  0  0  0  0  0  0  0  0
    4.6349    0.0990   -2.1557 C   0  0  0  0  0  0  0  0  0  0  0  0
    5.9025    0.4993   -2.5861 C   0  0  0  0  0  0  0  0  0  0  0  0
    6.5408    1.5581   -1.9786 C   0  0  0  0  0  0  0  0  0  0  0  0
    8.1309    2.0980   -2.4822 Cl  0  0  0  0  0  0  0  0  0  0  0  0
    5.9138    2.2148   -0.9441 C   0  0  0  0  0  0  0  0  0  0  0  0
    4.6425    1.8043   -0.5211 C   0  0  0  0  0  0  0  0  0  0  0  0
    0.0917   -0.3653    0.1817 C   0  0  0  0  0  0  0  0  0  0  0  0
   -3.6950   -4.7996   -2.2893 H   0  0  0  0  0  0  0  0  0  0  0  0
   -1.2268   -2.0745   -1.5848 H   0  0  0  0  0  0  0  0  0  0  0  0
   -2.9249   -1.4541   -1.2376 H   0  0  0  0  0  0  0  0  0  0  0  0
   -2.6375   -2.1894    1.1473 H   0  0  0  0  0  0  0  0  0  0  0  0
   -0.9223   -2.6928    0.7306 H   0  0  0  0  0  0  0  0  0  0  0  0
   -3.2944    0.3953    2.4754 H   0  0  0  0  0  0  0  0  0  0  0  0
   -4.7179    2.2245    1.9784 H   0  0  0  0  0  0  0  0  0  0  0  0
   -2.7442    2.8479   -1.7354 H   0  0  0  0  0  0  0  0  0  0  0  0
   -1.2456    0.9717   -1.2657 H   0  0  0  0  0  0  0  0  0  0  0  0
   -1.6783   -0.5283    3.0855 H   0  0  0  0  0  0  0  0  0  0  0  0
   -0.0733    0.1848    2.5579 H   0  0  0  0  0  0  0  0  0  0  0  0
   -0.7103   -2.8157    2.7203 H   0  0  0  0  0  0  0  0  0  0  0  0
    0.2132   -1.7887    3.8074 H   0  0  0  0  0  0  0  0  0  0  0  0
    1.3422   -2.9987    1.4611 H   0  0  0  0  0  0  0  0  0  0  0  0
    2.0368   -1.7845    2.5277 H   0  0  0  0  0  0  0  0  0  0  0  0
    1.8732    0.7904   -1.0998 H   0  0  0  0  0  0  0  0  0  0  0  0
    4.1687   -0.7273   -2.6502 H   0  0  0  0  0  0  0  0  0  0  0  0
    6.3739   -0.0319   -3.3999 H   0  0  0  0  0  0  0  0  0  0  0  0
    6.4172    3.0453   -0.4694 H   0  0  0  0  0  0  0  0  0  0  0  0
    4.1521    2.3249    0.2949 H   0  0  0  0  0  0  0  0  0  0  0  0
    0.2768    0.7481    0.2221 H   0  0  0  0  0  0  0  0  0  0  0  0
   -0.0225   -0.6293   -0.8676 H   0  0  0  0  0  0  0  0  0  0  0  0
  1  2  2  0
  2  3  1  0
  2  4  1  0
  4  5  1  0
  5  6  1  0
  6  7  1  0
  7  8  2  0
  8  9  1  0
  9 10  2  0
 10 11  1  0
 11 12  1  0
 11 13  1  0
 11 14  1  0
 10 15  1  0
 15 16  2  0
  6 17  1  0
 17 18  1  0
 18 19  1  0
 19 20  1  0
 20 21  1  0
 21 22  2  0
 21 23  1  0
 23 24  1  0
 24 25  2  0
 25 26  1  0
 26 27  2  0
 27 28  1  0
 27 29  1  0
 29 30  2  0
 20 31  1  0
 31  6  1  0
 16  7  1  0
 30 24  1  0
  3 32  1  0
  4 33  1  0
  4 34  1  0
  5 35  1  0
  5 36  1  0
  8 37  1  0
  9 38  1  0
 15 39  1  0
 16 40  1  0
 17 41  1  0
 17 42  1  0
 18 43  1  0
 18 44  1  0
 19 45  1  0
 19 46  1  0
 23 47  1  0
 25 48  1  0
 26 49  1  0
 29 50  1  0
 30 51  1  0
 31 52  1  0
 31 53  1  0
M  END
$$$$
