@<TRIPOS>MOLECULE
*****
 53 55 0 0 0
SMALL
GASTEIGER

@<TRIPOS>ATOM
      1 O          -2.6935   -4.2551   -0.0634 O.2     1  UNL1       -0.2510
      2 C          -2.6294   -3.5092   -1.0657 C.2     1  UNL1        0.3047
      3 O          -3.0557   -4.0210   -2.2840 O.3     1  UNL1       -0.4806
      4 C          -2.1066   -2.1329   -0.8980 C.3     1  UNL1        0.0456
      5 C          -1.7515   -1.9446    0.5389 C.3     1  UNL1       -0.0319
      6 C          -1.2090   -0.6193    0.9272 C.3     1  UNL1        0.0121
      7 C          -2.1280    0.5096    0.6516 C.ar    1  UNL1       -0.0397
      8 C          -3.1092    0.8940    1.5253 C.ar    1  UNL1       -0.0575
      9 C          -3.9604    1.9589    1.2599 C.ar    1  UNL1       -0.0498
     10 C          -3.7951    2.6368    0.0731 C.ar    1  UNL1        0.0548
     11 C          -4.7166    3.7788   -0.1989 C.3     1  UNL1        0.4174
     12 F          -4.1075    4.9977    0.0397 F       1  UNL1       -0.1659
     13 F          -5.1004    3.7045   -1.5284 F       1  UNL1       -0.1659
     14 F          -5.8422    3.7110    0.5722 F       1  UNL1       -0.1659
     15 C          -2.8145    2.2611   -0.8125 C.ar    1  UNL1       -0.0498
     16 C          -1.9987    1.2161   -0.5239 C.ar    1  UNL1       -0.0575
     17 C          -0.8313   -0.6407    2.3850 C.3     1  UNL1       -0.0405
     18 C          -0.0741   -1.9077    2.7135 C.3     1  UNL1       -0.0362
     19 C           1.1409   -1.9762    1.8609 C.3     1  UNL1        0.0162
     20 N           1.2121   -0.9874    0.8089 N.am    1  UNL1       -0.2845
     21 C           2.5017   -0.6023    0.3584 C.2     1  UNL1        0.3065
     22 O           3.5343   -1.1066    0.8604 O.2     1  UNL1       -0.2523
     23 N           2.7154    0.3601   -0.6702 N.am    1  UNL1       -0.2693
     24 C           4.0007    0.7482   -1.1237 C.ar    1  UNL1        0.0349
     25 C           4.6349    0.0990   -2.1557 C.ar    1  UNL1       -0.0391
     26 C           5.9025    0.4993   -2.5861 C.ar    1  UNL1       -0.0416
     27 C           6.5408    1.5581   -1.9786 C.ar    1  UNL1        0.0411
     28 CL          8.1309    2.0980   -2.4822 Cl      1  UNL1       -0.0835
     29 C           5.9138    2.2148   -0.9441 C.ar    1  UNL1       -0.0416
     30 C           4.6425    1.8043   -0.5211 C.ar    1  UNL1       -0.0391
     31 C           0.0917   -0.3653    0.1817 C.3     1  UNL1        0.0258
     32 H          -3.6950   -4.7996   -2.2893 H       1  UNL1        0.2951
     33 H          -1.2268   -2.0745   -1.5848 H       1  UNL1        0.0378
     34 H          -2.9249   -1.4541   -1.2376 H       1  UNL1        0.0378
     35 H          -2.6375   -2.1894    1.1473 H       1  UNL1        0.0279
     36 H          -0.9223   -2.6928    0.7306 H       1  UNL1        0.0279
     37 H          -3.2944    0.3953    2.4754 H       1  UNL1        0.0621
     38 H          -4.7179    2.2245    1.9784 H       1  UNL1        0.0623
     39 H          -2.7442    2.8479   -1.7354 H       1  UNL1        0.0623
     40 H          -1.2456    0.9717   -1.2657 H       1  UNL1        0.0621
     41 H          -1.6783   -0.5283    3.0855 H       1  UNL1        0.0275
     42 H          -0.0733    0.1848    2.5579 H       1  UNL1        0.0275
     43 H          -0.7103   -2.8157    2.7203 H       1  UNL1        0.0281
     44 H           0.2132   -1.7887    3.8074 H       1  UNL1        0.0281
     45 H           1.3422   -2.9987    1.4611 H       1  UNL1        0.0465
     46 H           2.0368   -1.7845    2.5277 H       1  UNL1        0.0465
     47 H           1.8732    0.7904   -1.0998 H       1  UNL1        0.1564
     48 H           4.1687   -0.7273   -2.6502 H       1  UNL1        0.0636
     49 H           6.3739   -0.0319   -3.3999 H       1  UNL1        0.0633
     50 H           6.4172    3.0453   -0.4694 H       1  UNL1        0.0633
     51 H           4.1521    2.3249    0.2949 H       1  UNL1        0.0636
     52 H           0.2768    0.7481    0.2221 H       1  UNL1        0.0474
     53 H          -0.0225   -0.6293   -0.8676 H       1  UNL1        0.0474
@<TRIPOS>BOND
     1     1     2    2
     2     2     3    1
     3     2     4    1
     4     4     5    1
     5     5     6    1
     6     6     7    1
     7     7     8   ar
     8     8     9   ar
     9     9    10   ar
    10    10    11    1
    11    11    12    1
    12    11    13    1
    13    11    14    1
    14    10    15   ar
    15    15    16   ar
    16     6    17    1
    17    17    18    1
    18    18    19    1
    19    19    20    1
    20    20    21   am
    21    21    22    2
    22    21    23   am
    23    23    24    1
    24    24    25   ar
    25    25    26   ar
    26    26    27   ar
    27    27    28    1
    28    27    29   ar
    29    29    30   ar
    30    20    31    1
    31    31     6    1
    32    16     7   ar
    33    30    24   ar
    34     3    32    1
    35     4    33    1
    36     4    34    1
    37     5    35    1
    38     5    36    1
    39     8    37    1
    40     9    38    1
    41    15    39    1
    42    16    40    1
    43    17    41    1
    44    17    42    1
    45    18    43    1
    46    18    44    1
    47    19    45    1
    48    19    46    1
    49    23    47    1
    50    25    48    1
    51    26    49    1
    52    29    50    1
    53    30    51    1
    54    31    52    1
    55    31    53    1
