@<TRIPOS>MOLECULE
*****
 39 41 0 0 0
SMALL
GASTEIGER

@<TRIPOS>ATOM
      1 C           7.1783    1.8812   -1.3062 C.3     1  UNL1        0.0004
      2 N           6.2950    1.1166   -0.4213 N.am    1  UNL1       -0.3144
      3 C           4.9303    0.9919   -0.7953 C.2     1  UNL1        0.2439
      4 O           4.5492    1.5485   -1.8742 O.2     1  UNL1       -0.2702
      5 C           3.9884    0.2590    0.0125 C.ar    1  UNL1        0.0384
      6 C           4.3052   -0.3650    1.1756 C.ar    1  UNL1       -0.0495
      7 C           3.3897   -1.0663    1.9425 C.ar    1  UNL1       -0.0593
      8 C           2.0888   -1.1231    1.4835 C.ar    1  UNL1       -0.0408
      9 C           1.7021   -0.5135    0.3146 C.ar    1  UNL1        0.0282
     10 N           0.3530   -0.6048   -0.1080 N.pl3   1  UNL1       -0.3367
     11 C          -0.5874   -1.3302    0.6881 C.3     1  UNL1        0.0686
     12 C          -1.9545   -1.3287    0.1049 C.ar    1  UNL1        0.1427
     13 N          -2.9079   -0.4223    0.3473 N.ar    1  UNL1       -0.2099
     14 C          -4.0287   -0.7209   -0.3457 C.ar    1  UNL1        0.1815
     15 C          -5.2737    0.0390   -0.3329 C.ar    1  UNL1        0.0237
     16 C          -6.4939   -0.5612   -0.5257 C.ar    1  UNL1       -0.0328
     17 C          -7.6448    0.1966   -0.5054 C.ar    1  UNL1        0.0282
     18 N          -7.5990    1.5376   -0.2970 N.ar    1  UNL1       -0.2632
     19 C          -6.4283    2.1614   -0.1047 C.ar    1  UNL1        0.0282
     20 C          -5.2784    1.4085   -0.1243 C.ar    1  UNL1       -0.0328
     21 N          -3.7252   -1.8460   -1.0226 N.ar    1  UNL1       -0.1522
     22 N          -2.4874   -2.2190   -0.7610 N.ar    1  UNL1       -0.2609
     23 C           2.6591    0.1704   -0.4060 C.ar    1  UNL1       -0.0287
     24 H           7.1474    1.4762   -2.3455 H       1  UNL1        0.0426
     25 H           6.8739    2.9381   -1.3012 H       1  UNL1        0.0426
     26 H           8.2100    1.7808   -0.9437 H       1  UNL1        0.0426
     27 H           6.6813    0.6829    0.4574 H       1  UNL1        0.1487
     28 H           5.3129   -0.3364    1.5566 H       1  UNL1        0.0625
     29 H           3.7071   -1.5411    2.8599 H       1  UNL1        0.0618
     30 H           1.3699   -1.6602    2.0633 H       1  UNL1        0.0636
     31 H           0.0054   -0.1597   -0.9893 H       1  UNL1        0.1465
     32 H          -0.2932   -2.3956    0.8441 H       1  UNL1        0.0542
     33 H          -0.5785   -0.8734    1.7096 H       1  UNL1        0.0542
     34 H          -6.5789   -1.6257   -0.6952 H       1  UNL1        0.0640
     35 H          -8.6391   -0.2200   -0.6514 H       1  UNL1        0.0830
     36 H          -6.3340    3.2191    0.0645 H       1  UNL1        0.0830
     37 H          -4.3078    1.8907    0.0297 H       1  UNL1        0.0640
     38 H          -1.9418   -3.0359   -1.1135 H       1  UNL1        0.1903
     39 H           2.3355    0.6506   -1.3348 H       1  UNL1        0.0643
@<TRIPOS>BOND
     1     1     2    1
     2     2     3   am
     3     3     4    2
     4     3     5    1
     5     5     6   ar
     6     6     7   ar
     7     7     8   ar
     8     8     9   ar
     9     9    10    1
    10    10    11    1
    11    11    12    1
    12    12    13   ar
    13    13    14   ar
    14    14    15    1
    15    15    16   ar
    16    16    17   ar
    17    17    18   ar
    18    18    19   ar
    19    19    20   ar
    20    14    21   ar
    21    21    22   ar
    22     9    23   ar
    23    23     5   ar
    24    22    12   ar
    25    20    15   ar
    26     1    24    1
    27     1    25    1
    28     1    26    1
    29     2    27    1
    30     6    28    1
    31     7    29    1
    32     8    30    1
    33    10    31    1
    34    11    32    1
    35    11    33    1
    36    16    34    1
    37    17    35    1
    38    19    36    1
    39    20    37    1
    40    22    38    1
    41    23    39    1
