
     RDKit          3D

 62 67  0  0  0  0  0  0  0  0999 V2000
   -2.9193   -3.6529   -1.7392 N   0  0  0  0  0  0  0  0  0  0  0  0
   -1.4924   -3.7128   -1.5169 C   0  0  0  0  0  0  0  0  0  0  0  0
   -0.7950   -4.7824   -1.9069 N   0  0  0  0  0  0  0  0  0  0  0  0
    0.5213   -4.8562   -1.7091 C   0  0  0  0  0  0  0  0  0  0  0  0
    1.1441   -3.8109   -1.0971 C   0  0  0  0  0  0  0  0  0  0  0  0
    0.4490   -2.6880   -0.6814 C   0  0  0  0  0  0  0  0  0  0  0  0
   -0.8846   -2.6190   -0.8840 C   0  0  0  0  0  0  0  0  0  0  0  0
   -1.7169   -1.5025   -0.5030 C   0  0  0  0  0  0  0  0  0  0  0  0
   -3.0790   -1.4229   -0.7229 N   0  0  0  0  0  0  0  0  0  0  0  0
   -3.5609   -0.2687   -0.2561 C   0  0  0  0  0  0  0  0  0  0  0  0
   -4.8298    0.2972   -0.2292 C   0  0  0  0  0  0  0  0  0  0  0  0
   -5.0544    1.5391    0.3240 C   0  0  0  0  0  0  0  0  0  0  0  0
   -6.3553    2.1843    0.3726 C   0  0  0  0  0  0  0  0  0  0  0  0
   -6.7391    3.0404    1.3794 C   0  0  0  0  0  0  0  0  0  0  0  0
   -7.9715    3.6414    1.3936 C   0  0  0  0  0  0  0  0  0  0  0  0
   -8.8652    3.4070    0.3996 C   0  0  0  0  0  0  0  0  0  0  0  0
   -8.5061    2.5448   -0.6344 C   0  0  0  0  0  0  0  0  0  0  0  0
   -7.2607    1.9465   -0.6349 C   0  0  0  0  0  0  0  0  0  0  0  0
   -3.9190    2.1732    0.8483 C   0  0  0  0  0  0  0  0  0  0  0  0
   -2.7044    1.6021    0.8088 N   0  0  0  0  0  0  0  0  0  0  0  0
   -2.4826    0.3923    0.2697 C   0  0  0  0  0  0  0  0  0  0  0  0
   -1.3543   -0.3858    0.1074 N   0  0  0  0  0  0  0  0  0  0  0  0
   -0.1162    0.0829    0.5651 C   0  0  0  0  0  0  0  0  0  0  0  0
    0.6813    0.9034   -0.2441 C   0  0  0  0  0  0  0  0  0  0  0  0
    1.8852    1.4082    0.1623 C   0  0  0  0  0  0  0  0  0  0  0  0
    2.3943    1.1373    1.4066 C   0  0  0  0  0  0  0  0  0  0  0  0
    3.6746    1.6765    1.8506 C   0  0  0  0  0  0  0  0  0  0  0  0
    4.8387    0.8857    1.6228 N   0  0  0  0  0  0  0  0  0  0  0  0
    5.4777    0.8615    0.3591 C   0  0  0  0  0  0  0  0  0  0  0  0
    5.0102    1.5610   -0.6091 O   0  0  0  0  0  0  0  0  0  0  0  0
    6.6679    0.0829    0.0474 C   0  0  0  0  0  0  0  0  0  0  0  0
    7.2339   -0.7321    1.0014 C   0  0  0  0  0  0  0  0  0  0  0  0
    8.3850   -1.4756    0.7189 C   0  0  0  0  0  0  0  0  0  0  0  0
    8.9172   -1.3547   -0.5420 C   0  0  0  0  0  0  0  0  0  0  0  0
    8.3550   -0.5355   -1.5150 C   0  0  0  0  0  0  0  0  0  0  0  0
    7.2289    0.1803   -1.2103 C   0  0  0  0  0  0  0  0  0  0  0  0
    1.6027    0.3172    2.2210 C   0  0  0  0  0  0  0  0  0  0  0  0
    0.3938   -0.1906    1.8173 C   0  0  0  0  0  0  0  0  0  0  0  0
   -3.5897   -3.7702   -0.9608 H   0  0  0  0  0  0  0  0  0  0  0  0
   -3.2660   -3.4858   -2.7111 H   0  0  0  0  0  0  0  0  0  0  0  0
    1.0998   -5.7170   -2.0196 H   0  0  0  0  0  0  0  0  0  0  0  0
    2.2049   -3.8652   -0.9338 H   0  0  0  0  0  0  0  0  0  0  0  0
    1.0097   -1.9191   -0.2219 H   0  0  0  0  0  0  0  0  0  0  0  0
   -5.6624   -0.2525   -0.6541 H   0  0  0  0  0  0  0  0  0  0  0  0
   -6.0201    3.2207    2.1686 H   0  0  0  0  0  0  0  0  0  0  0  0
   -8.2283    4.3085    2.2095 H   0  0  0  0  0  0  0  0  0  0  0  0
   -9.8399    3.8939    0.4266 H   0  0  0  0  0  0  0  0  0  0  0  0
   -9.2391    2.3851   -1.4030 H   0  0  0  0  0  0  0  0  0  0  0  0
   -7.0241    1.2879   -1.4502 H   0  0  0  0  0  0  0  0  0  0  0  0
   -4.0219    3.1469    1.2977 H   0  0  0  0  0  0  0  0  0  0  0  0
    0.2971    1.1353   -1.2458 H   0  0  0  0  0  0  0  0  0  0  0  0
    2.4174    2.0384   -0.5199 H   0  0  0  0  0  0  0  0  0  0  0  0
    3.6336    2.0278    2.9239 H   0  0  0  0  0  0  0  0  0  0  0  0
    3.8527    2.6455    1.2869 H   0  0  0  0  0  0  0  0  0  0  0  0
    5.2632    0.2827    2.4058 H   0  0  0  0  0  0  0  0  0  0  0  0
    6.8518   -0.8518    1.9870 H   0  0  0  0  0  0  0  0  0  0  0  0
    8.8178   -2.1065    1.4687 H   0  0  0  0  0  0  0  0  0  0  0  0
    9.8164   -1.9098   -0.8240 H   0  0  0  0  0  0  0  0  0  0  0  0
    8.7894   -0.4510   -2.5087 H   0  0  0  0  0  0  0  0  0  0  0  0
    6.8071    0.8185   -1.9988 H   0  0  0  0  0  0  0  0  0  0  0  0
    1.9925    0.0912    3.2121 H   0  0  0  0  0  0  0  0  0  0  0  0
   -0.2161   -0.8281    2.4587 H   0  0  0  0  0  0  0  0  0  0  0  0
  1  2  1  0
  2  3  2  0
  3  4  1  0
  4  5  2  0
  5  6  1  0
  6  7  2  0
  7  8  1  0
  8  9  2  0
  9 10  1  0
 10 11  2  0
 11 12  1  0
 12 13  1  0
 13 14  2  0
 14 15  1  0
 15 16  2  0
 16 17  1  0
 17 18  2  0
 12 19  2  0
 19 20  1  0
 20 21  2  0
 21 22  1  0
 22 23  1  0
 23 24  2  0
 24 25  1  0
 25 26  2  0
 26 27  1  0
 27 28  1  0
 28 29  1  0
 29 30  2  0
 29 31  1  0
 31 32  2  0
 32 33  1  0
 33 34  2  0
 34 35  1  0
 35 36  2  0
 26 37  1  0
 37 38  2  0
  7  2  1  0
 22  8  1  0
 38 23  1  0
 21 10  1  0
 36 31  1  0
 18 13  1  0
  1 39  1  0
  1 40  1  0
  4 41  1  0
  5 42  1  0
  6 43  1  0
 11 44  1  0
 14 45  1  0
 15 46  1  0
 16 47  1  0
 17 48  1  0
 18 49  1  0
 19 50  1  0
 24 51  1  0
 25 52  1  0
 27 53  1  0
 27 54  1  0
 28 55  1  0
 32 56  1  0
 33 57  1  0
 34 58  1  0
 35 59  1  0
 36 60  1  0
 37 61  1  0
 38 62  1  0
M  END
$$$$
