@<TRIPOS>MOLECULE
*****
 62 67 0 0 0
SMALL
GASTEIGER

@<TRIPOS>ATOM
      1 N          -2.9193   -3.6529   -1.7392 N.pl3   1  UNL1       -0.3426
      2 C          -1.4924   -3.7128   -1.5169 C.ar    1  UNL1        0.1268
      3 N          -0.7950   -4.7824   -1.9069 N.ar    1  UNL1       -0.2400
      4 C           0.5213   -4.8562   -1.7091 C.ar    1  UNL1        0.0297
      5 C           1.1441   -3.8109   -1.0971 C.ar    1  UNL1       -0.0428
      6 C           0.4490   -2.6880   -0.6814 C.ar    1  UNL1       -0.0464
      7 C          -0.8846   -2.6190   -0.8840 C.ar    1  UNL1        0.0573
      8 C          -1.7169   -1.5025   -0.5030 C.ar    1  UNL1        0.1508
      9 N          -3.0790   -1.4229   -0.7229 N.ar    1  UNL1       -0.2254
     10 C          -3.5609   -0.2687   -0.2561 C.ar    1  UNL1        0.1095
     11 C          -4.8298    0.2972   -0.2292 C.ar    1  UNL1       -0.0235
     12 C          -5.0544    1.5391    0.3240 C.ar    1  UNL1        0.0024
     13 C          -6.3553    2.1843    0.3726 C.ar    1  UNL1       -0.0164
     14 C          -6.7391    3.0404    1.3794 C.ar    1  UNL1       -0.0540
     15 C          -7.9715    3.6414    1.3936 C.ar    1  UNL1       -0.0612
     16 C          -8.8652    3.4070    0.3996 C.ar    1  UNL1       -0.0617
     17 C          -8.5061    2.5448   -0.6344 C.ar    1  UNL1       -0.0612
     18 C          -7.2607    1.9465   -0.6349 C.ar    1  UNL1       -0.0540
     19 C          -3.9190    2.1732    0.8483 C.ar    1  UNL1        0.0377
     20 N          -2.7044    1.6021    0.8088 N.ar    1  UNL1       -0.2349
     21 C          -2.4826    0.3923    0.2697 C.ar    1  UNL1        0.1653
     22 N          -1.3543   -0.3858    0.1074 N.ar    1  UNL1       -0.2767
     23 C          -0.1162    0.0829    0.5651 C.ar    1  UNL1        0.0500
     24 C           0.6813    0.9034   -0.2441 C.ar    1  UNL1       -0.0374
     25 C           1.8852    1.4082    0.1623 C.ar    1  UNL1       -0.0551
     26 C           2.3943    1.1373    1.4066 C.ar    1  UNL1       -0.0302
     27 C           3.6746    1.6765    1.8506 C.3     1  UNL1        0.0371
     28 N           4.8387    0.8857    1.6228 N.am    1  UNL1       -0.3072
     29 C           5.4777    0.8615    0.3591 C.2     1  UNL1        0.2443
     30 O           5.0102    1.5610   -0.6091 O.2     1  UNL1       -0.2702
     31 C           6.6679    0.0829    0.0474 C.ar    1  UNL1        0.0367
     32 C           7.2339   -0.7321    1.0014 C.ar    1  UNL1       -0.0496
     33 C           8.3850   -1.4756    0.7189 C.ar    1  UNL1       -0.0610
     34 C           8.9172   -1.3547   -0.5420 C.ar    1  UNL1       -0.0617
     35 C           8.3550   -0.5355   -1.5150 C.ar    1  UNL1       -0.0610
     36 C           7.2289    0.1803   -1.2103 C.ar    1  UNL1       -0.0496
     37 C           1.6027    0.3172    2.2210 C.ar    1  UNL1       -0.0551
     38 C           0.3938   -0.1906    1.8173 C.ar    1  UNL1       -0.0374
     39 H          -3.5897   -3.7702   -0.9608 H       1  UNL1        0.1437
     40 H          -3.2660   -3.4858   -2.7111 H       1  UNL1        0.1437
     41 H           1.0998   -5.7170   -2.0196 H       1  UNL1        0.0830
     42 H           2.2049   -3.8652   -0.9338 H       1  UNL1        0.0633
     43 H           1.0097   -1.9191   -0.2219 H       1  UNL1        0.0626
     44 H          -5.6624   -0.2525   -0.6541 H       1  UNL1        0.0646
     45 H          -6.0201    3.2207    2.1686 H       1  UNL1        0.0624
     46 H          -8.2283    4.3085    2.2095 H       1  UNL1        0.0618
     47 H          -9.8399    3.8939    0.4266 H       1  UNL1        0.0618
     48 H          -9.2391    2.3851   -1.4030 H       1  UNL1        0.0618
     49 H          -7.0241    1.2879   -1.4502 H       1  UNL1        0.0624
     50 H          -4.0219    3.1469    1.2977 H       1  UNL1        0.0836
     51 H           0.2971    1.1353   -1.2458 H       1  UNL1        0.0638
     52 H           2.4174    2.0384   -0.5199 H       1  UNL1        0.0621
     53 H           3.6336    2.0278    2.9239 H       1  UNL1        0.0512
     54 H           3.8527    2.6455    1.2869 H       1  UNL1        0.0512
     55 H           5.2632    0.2827    2.4058 H       1  UNL1        0.1493
     56 H           6.8518   -0.8518    1.9870 H       1  UNL1        0.0625
     57 H           8.8178   -2.1065    1.4687 H       1  UNL1        0.0618
     58 H           9.8164   -1.9098   -0.8240 H       1  UNL1        0.0618
     59 H           8.7894   -0.4510   -2.5087 H       1  UNL1        0.0618
     60 H           6.8071    0.8185   -1.9988 H       1  UNL1        0.0625
     61 H           1.9925    0.0912    3.2121 H       1  UNL1        0.0621
     62 H          -0.2161   -0.8281    2.4587 H       1  UNL1        0.0638
@<TRIPOS>BOND
     1     1     2    1
     2     2     3   ar
     3     3     4   ar
     4     4     5   ar
     5     5     6   ar
     6     6     7   ar
     7     7     8    1
     8     8     9   ar
     9     9    10   ar
    10    10    11   ar
    11    11    12   ar
    12    12    13    1
    13    13    14   ar
    14    14    15   ar
    15    15    16   ar
    16    16    17   ar
    17    17    18   ar
    18    12    19   ar
    19    19    20   ar
    20    20    21   ar
    21    21    22   ar
    22    22    23    1
    23    23    24   ar
    24    24    25   ar
    25    25    26   ar
    26    26    27    1
    27    27    28    1
    28    28    29   am
    29    29    30    2
    30    29    31    1
    31    31    32   ar
    32    32    33   ar
    33    33    34   ar
    34    34    35   ar
    35    35    36   ar
    36    26    37   ar
    37    37    38   ar
    38     7     2   ar
    39    22     8   ar
    40    38    23   ar
    41    21    10   ar
    42    36    31   ar
    43    18    13   ar
    44     1    39    1
    45     1    40    1
    46     4    41    1
    47     5    42    1
    48     6    43    1
    49    11    44    1
    50    14    45    1
    51    15    46    1
    52    16    47    1
    53    17    48    1
    54    18    49    1
    55    19    50    1
    56    24    51    1
    57    25    52    1
    58    27    53    1
    59    27    54    1
    60    28    55    1
    61    32    56    1
    62    33    57    1
    63    34    58    1
    64    35    59    1
    65    36    60    1
    66    37    61    1
    67    38    62    1
