@<TRIPOS>MOLECULE
*****
 38 41 0 0 0
SMALL
GASTEIGER

@<TRIPOS>ATOM
      1 BR         -2.5009   -4.9647    0.8205 Br      1  UNL1       -0.0448
      2 C          -1.1471   -3.6424    0.5833 C.ar    1  UNL1        0.0817
      3 C          -1.2061   -2.2675    0.4181 C.ar    1  UNL1        0.1721
      4 N          -2.3078   -1.4968    0.3846 N.ar    1  UNL1       -0.2266
      5 C          -2.2515   -0.1567    0.2172 C.ar    1  UNL1        0.0766
      6 C          -0.9668    0.3288    0.0865 C.ar    1  UNL1        0.0042
      7 C           0.1608   -0.4659    0.1215 C.ar    1  UNL1        0.1248
      8 N           1.4443    0.1137   -0.0207 N.pl3   1  UNL1       -0.3248
      9 C           2.6438   -0.7036    0.0131 C.3     1  UNL1        0.0371
     10 C           3.8736    0.1278   -0.1569 C.ar    1  UNL1       -0.0123
     11 C           4.4612    0.4290   -1.3731 C.ar    1  UNL1       -0.0542
     12 C           5.6036    1.2150   -1.3693 C.ar    1  UNL1       -0.0433
     13 C           6.1435    1.6868   -0.1806 C.ar    1  UNL1        0.0276
     14 N           5.5391    1.3701    0.9904 N.ar    1  UNL1       -0.2629
     15 C           4.4263    0.6063    1.0078 C.ar    1  UNL1        0.0322
     16 N           0.0355   -1.7938    0.2912 N.ar    1  UNL1       -0.1995
     17 N           0.9093   -2.7830    0.3641 N.ar    1  UNL1       -0.1706
     18 C           0.2103   -3.9202    0.5422 C.ar    1  UNL1        0.0660
     19 C          -3.4391    0.6851    0.1798 C.ar    1  UNL1        0.0005
     20 C          -3.4338    2.0416    0.0132 C.ar    1  UNL1       -0.0526
     21 C          -4.5685    2.8257   -0.0201 C.ar    1  UNL1       -0.0611
     22 C          -5.8018    2.1813    0.1272 C.ar    1  UNL1       -0.0617
     23 C          -5.8147    0.8068    0.2964 C.ar    1  UNL1       -0.0611
     24 C          -4.6592    0.0585    0.3242 C.ar    1  UNL1       -0.0526
     25 H          -0.8121    1.3899   -0.0521 H       1  UNL1        0.0673
     26 H           1.5429    1.1483   -0.1530 H       1  UNL1        0.1478
     27 H           2.5942   -1.4333   -0.8346 H       1  UNL1        0.0512
     28 H           2.7011   -1.3210    0.9370 H       1  UNL1        0.0512
     29 H           3.9881    0.0290   -2.2569 H       1  UNL1        0.0622
     30 H           6.0589    1.4489   -2.3070 H       1  UNL1        0.0633
     31 H           7.0266    2.2952   -0.1673 H       1  UNL1        0.0829
     32 H           4.0314    0.4189    2.0035 H       1  UNL1        0.0833
     33 H           0.6935   -4.8848    0.6337 H       1  UNL1        0.0860
     34 H          -2.4928    2.5437   -0.1005 H       1  UNL1        0.0624
     35 H          -4.4822    3.9099   -0.1577 H       1  UNL1        0.0618
     36 H          -6.6871    2.7984    0.1006 H       1  UNL1        0.0618
     37 H          -6.8015    0.3747    0.4041 H       1  UNL1        0.0618
     38 H          -4.7150   -0.9994    0.4569 H       1  UNL1        0.0624
@<TRIPOS>BOND
     1     1     2    1
     2     2     3   ar
     3     3     4   ar
     4     4     5   ar
     5     5     6   ar
     6     6     7   ar
     7     7     8    1
     8     8     9    1
     9     9    10    1
    10    10    11   ar
    11    11    12   ar
    12    12    13   ar
    13    13    14   ar
    14    14    15   ar
    15     7    16   ar
    16    16    17   ar
    17    17    18   ar
    18     5    19    1
    19    19    20   ar
    20    20    21   ar
    21    21    22   ar
    22    22    23   ar
    23    23    24   ar
    24    18     2   ar
    25    24    19   ar
    26    16     3   ar
    27    15    10   ar
    28     6    25    1
    29     8    26    1
    30     9    27    1
    31     9    28    1
    32    11    29    1
    33    12    30    1
    34    13    31    1
    35    15    32    1
    36    18    33    1
    37    20    34    1
    38    21    35    1
    39    22    36    1
    40    23    37    1
    41    24    38    1
