@<TRIPOS>MOLECULE
*****
 69 72 0 0 0
SMALL
GASTEIGER

@<TRIPOS>ATOM
      1 C          -3.8010   -0.7050    0.7083 C.3     1  UNL1       -0.0400
      2 C          -4.8772   -1.7240    0.2346 C.3     1  UNL1       -0.0621
      3 C          -4.4310    0.6258    0.4356 C.3     1  UNL1       -0.0401
      4 C          -5.7295    0.6468    1.2661 C.3     1  UNL1        0.0450
      5 C          -6.3615    1.9760    1.0000 C.2     1  UNL1        0.3047
      6 O          -5.8798    2.9893    0.1729 O.3     1  UNL1       -0.4806
      7 O          -7.4592    2.2592    1.5670 O.2     1  UNL1       -0.2510
      8 C          -2.5884   -1.0405   -0.0726 C.3     1  UNL1       -0.0304
      9 C          -2.7323   -0.9105   -1.5640 C.3     1  UNL1       -0.0491
     10 C          -1.3349   -0.7437   -2.1229 C.3     1  UNL1       -0.0490
     11 C          -0.4563   -0.9014   -0.9272 C.3     1  UNL1       -0.0276
     12 C           0.8007   -0.1321   -0.9413 C.3     1  UNL1       -0.0081
     13 C           1.6633   -0.6111   -2.1036 C.3     1  UNL1        0.0589
     14 O           1.4813   -1.9943   -2.2621 O.3     1  UNL1       -0.3915
     15 C           3.1317   -0.2885   -1.8986 C.3     1  UNL1       -0.0232
     16 C           3.2527    0.8150   -0.8897 C.3     1  UNL1       -0.0307
     17 C           4.5947    1.5057   -0.8993 C.3     1  UNL1       -0.0234
     18 C           5.6179    0.9171    0.0000 C.3     1  UNL1        0.0555
     19 O           6.7447    0.6276   -0.8052 O.3     1  UNL1       -0.3918
     20 C           5.2362   -0.3632    0.6470 C.3     1  UNL1       -0.0263
     21 C           3.8619   -0.4590    1.1965 C.3     1  UNL1       -0.0448
     22 C           2.8195    0.3652    0.4881 C.3     1  UNL1       -0.0257
     23 C           2.6385    1.6227    1.3055 C.3     1  UNL1       -0.0590
     24 C           1.5612   -0.4430    0.3249 C.3     1  UNL1       -0.0276
     25 C           0.7695   -0.4521    1.5757 C.3     1  UNL1       -0.0226
     26 C          -0.5974   -1.0734    1.4465 C.3     1  UNL1        0.0614
     27 O          -0.4952   -2.4367    1.2810 O.3     1  UNL1       -0.3912
     28 C          -1.2970   -0.4267    0.2631 C.3     1  UNL1        0.0001
     29 C          -1.2959    1.0424    0.4577 C.3     1  UNL1       -0.0567
     30 H          -3.6591   -0.9179    1.7802 H       1  UNL1        0.0301
     31 H          -4.3850   -2.6299   -0.1811 H       1  UNL1        0.0233
     32 H          -5.4391   -1.2876   -0.6141 H       1  UNL1        0.0233
     33 H          -5.5709   -1.9582    1.0478 H       1  UNL1        0.0233
     34 H          -4.7599    0.6701   -0.6105 H       1  UNL1        0.0273
     35 H          -3.8975    1.5119    0.7406 H       1  UNL1        0.0273
     36 H          -5.4902    0.6137    2.3477 H       1  UNL1        0.0378
     37 H          -6.4331   -0.1239    0.9390 H       1  UNL1        0.0378
     38 H          -6.1312    3.9520    0.2854 H       1  UNL1        0.2951
     39 H          -2.4143   -2.1778    0.0652 H       1  UNL1        0.0310
     40 H          -3.3038   -0.0233   -1.8932 H       1  UNL1        0.0268
     41 H          -3.2728   -1.7819   -1.9866 H       1  UNL1        0.0268
     42 H          -1.1877    0.1555   -2.7207 H       1  UNL1        0.0268
     43 H          -1.1507   -1.6332   -2.7786 H       1  UNL1        0.0268
     44 H          -0.2021   -1.9836   -0.7564 H       1  UNL1        0.0310
     45 H           0.6170    0.9219   -1.1352 H       1  UNL1        0.0331
     46 H           1.3278   -0.1212   -3.0323 H       1  UNL1        0.0596
     47 H           1.6660   -2.2057   -3.2139 H       1  UNL1        0.2098
     48 H           3.5924    0.0464   -2.8471 H       1  UNL1        0.0293
     49 H           3.6156   -1.2311   -1.5678 H       1  UNL1        0.0293
     50 H           2.5313    1.6173   -1.2003 H       1  UNL1        0.0308
     51 H           4.8951    1.5643   -1.9762 H       1  UNL1        0.0293
     52 H           4.4765    2.5803   -0.5952 H       1  UNL1        0.0293
     53 H           6.0030    1.6369    0.7734 H       1  UNL1        0.0593
     54 H           7.4989    1.2352   -0.6413 H       1  UNL1        0.2098
     55 H           5.9512   -0.5148    1.5016 H       1  UNL1        0.0290
     56 H           5.4848   -1.2231   -0.0414 H       1  UNL1        0.0290
     57 H           3.5608   -1.5384    1.1271 H       1  UNL1        0.0271
     58 H           3.8163   -0.2448    2.2934 H       1  UNL1        0.0271
     59 H           3.6454    2.1361    1.2650 H       1  UNL1        0.0235
     60 H           1.9418    2.3468    0.8746 H       1  UNL1        0.0235
     61 H           2.5005    1.4290    2.3959 H       1  UNL1        0.0235
     62 H           1.9244   -1.5079    0.1741 H       1  UNL1        0.0310
     63 H           1.3127   -1.1246    2.3061 H       1  UNL1        0.0293
     64 H           0.7050    0.5112    2.1207 H       1  UNL1        0.0293
     65 H          -1.1624   -0.8441    2.3699 H       1  UNL1        0.0599
     66 H           0.3166   -2.7801    1.7602 H       1  UNL1        0.2098
     67 H          -1.7172    1.2157    1.4931 H       1  UNL1        0.0236
     68 H          -1.7962    1.5962   -0.3297 H       1  UNL1        0.0236
     69 H          -0.2473    1.4248    0.5767 H       1  UNL1        0.0236
@<TRIPOS>BOND
     1     1     2    1
     2     1     3    1
     3     3     4    1
     4     4     5    1
     5     5     6    1
     6     5     7    2
     7     1     8    1
     8     8     9    1
     9     9    10    1
    10    10    11    1
    11    11    12    1
    12    12    13    1
    13    13    14    1
    14    13    15    1
    15    15    16    1
    16    16    17    1
    17    17    18    1
    18    18    19    1
    19    18    20    1
    20    20    21    1
    21    21    22    1
    22    22    23    1
    23    22    24    1
    24    24    25    1
    25    25    26    1
    26    26    27    1
    27    26    28    1
    28    28    29    1
    29    28     8    1
    30    28    11    1
    31    24    12    1
    32    22    16    1
    33     1    30    1
    34     2    31    1
    35     2    32    1
    36     2    33    1
    37     3    34    1
    38     3    35    1
    39     4    36    1
    40     4    37    1
    41     6    38    1
    42     8    39    1
    43     9    40    1
    44     9    41    1
    45    10    42    1
    46    10    43    1
    47    11    44    1
    48    12    45    1
    49    13    46    1
    50    14    47    1
    51    15    48    1
    52    15    49    1
    53    16    50    1
    54    17    51    1
    55    17    52    1
    56    18    53    1
    57    19    54    1
    58    20    55    1
    59    20    56    1
    60    21    57    1
    61    21    58    1
    62    23    59    1
    63    23    60    1
    64    23    61    1
    65    24    62    1
    66    25    63    1
    67    25    64    1
    68    26    65    1
    69    27    66    1
    70    29    67    1
    71    29    68    1
    72    29    69    1
