
     RDKit          3D

 45 47  0  0  0  0  0  0  0  0999 V2000
   -2.6599   -0.7563    0.5490 C   0  0  1  0  0  0  0  0  0  0  0  0
   -3.5687   -1.2999   -0.5124 C   0  0  0  0  0  0  0  0  0  0  0  0
   -1.5242   -1.7038    0.8627 C   0  0  0  0  0  0  0  0  0  0  0  0
   -0.2304   -1.3235    0.7737 C   0  0  0  0  0  0  0  0  0  0  0  0
    0.7619   -2.3745    0.4103 C   0  0  0  0  0  0  0  0  0  0  0  0
    0.1967    0.0793    1.0249 C   0  0  2  0  0  0  0  0  0  0  0  0
   -1.0811    0.9111    1.2300 C   0  0  2  0  0  0  0  0  0  0  0  0
   -1.6945    0.6878    2.5683 C   0  0  0  0  0  0  0  0  0  0  0  0
   -1.9418    0.5145    0.0601 C   0  0  2  0  0  0  0  0  0  0  0  0
   -3.0178    1.5723   -0.1828 C   0  0  0  0  0  0  0  0  0  0  0  0
   -2.4471    2.7484   -0.6259 O   0  0  0  0  0  0  0  0  0  0  0  0
   -1.2222    0.1235   -1.1732 C   0  0  0  0  0  0  0  0  0  0  0  0
    0.0681    0.4804   -1.3359 O   0  0  0  0  0  0  0  0  0  0  0  0
    0.8015    0.7451   -0.2021 C   0  0  2  0  0  0  0  0  0  0  0  0
    2.2592    0.4789   -0.3433 C   0  0  0  0  0  0  0  0  0  0  0  0
    2.7029    0.9650   -1.5802 C   0  0  0  0  0  0  0  0  0  0  0  0
    4.0500    0.8302   -1.9362 C   0  0  0  0  0  0  0  0  0  0  0  0
    4.9369    0.2329   -1.0974 C   0  0  0  0  0  0  0  0  0  0  0  0
    6.2785    0.0608   -1.3722 O   0  0  0  0  0  0  0  0  0  0  0  0
    4.4745   -0.2292    0.0979 C   0  0  0  0  0  0  0  0  0  0  0  0
    3.1591   -0.1224    0.4982 C   0  0  0  0  0  0  0  0  0  0  0  0
   -3.2168   -0.5388    1.4806 H   0  0  0  0  0  0  0  0  0  0  0  0
   -4.6287   -1.0634   -0.2623 H   0  0  0  0  0  0  0  0  0  0  0  0
   -3.3465   -0.8039   -1.4782 H   0  0  0  0  0  0  0  0  0  0  0  0
   -3.5343   -2.4084   -0.6105 H   0  0  0  0  0  0  0  0  0  0  0  0
   -1.7404   -2.7286    1.1715 H   0  0  0  0  0  0  0  0  0  0  0  0
    1.2563   -2.0401   -0.5349 H   0  0  0  0  0  0  0  0  0  0  0  0
    1.5322   -2.5207    1.1670 H   0  0  0  0  0  0  0  0  0  0  0  0
    0.2649   -3.3330    0.1496 H   0  0  0  0  0  0  0  0  0  0  0  0
    0.8150    0.2266    1.9024 H   0  0  0  0  0  0  0  0  0  0  0  0
   -0.7612    1.9803    1.1707 H   0  0  0  0  0  0  0  0  0  0  0  0
   -2.7069    1.1056    2.5708 H   0  0  0  0  0  0  0  0  0  0  0  0
   -1.6200   -0.3427    2.9115 H   0  0  0  0  0  0  0  0  0  0  0  0
   -1.0849    1.2996    3.2962 H   0  0  0  0  0  0  0  0  0  0  0  0
   -3.6876    1.6686    0.6791 H   0  0  0  0  0  0  0  0  0  0  0  0
   -3.6397    1.1658   -1.0293 H   0  0  0  0  0  0  0  0  0  0  0  0
   -2.9251    3.5150   -0.2288 H   0  0  0  0  0  0  0  0  0  0  0  0
   -1.3106   -0.9726   -1.4405 H   0  0  0  0  0  0  0  0  0  0  0  0
   -1.7908    0.6069   -2.0253 H   0  0  0  0  0  0  0  0  0  0  0  0
    0.7231    1.8380   -0.0197 H   0  0  0  0  0  0  0  0  0  0  0  0
    2.1175    1.4651   -2.3573 H   0  0  0  0  0  0  0  0  0  0  0  0
    4.4424    1.1935   -2.8896 H   0  0  0  0  0  0  0  0  0  0  0  0
    6.7393   -0.7683   -1.0668 H   0  0  0  0  0  0  0  0  0  0  0  0
    5.1103   -0.7206    0.8327 H   0  0  0  0  0  0  0  0  0  0  0  0
    2.6912   -0.4447    1.4052 H   0  0  0  0  0  0  0  0  0  0  0  0
  1  2  1  0
  1  3  1  0
  3  4  2  0
  4  5  1  0
  4  6  1  0
  6  7  1  0
  7  8  1  0
  7  9  1  0
  9 10  1  6
 10 11  1  0
  9 12  1  0
 12 13  1  0
 13 14  1  0
 14 15  1  0
 15 16  2  0
 16 17  1  0
 17 18  2  0
 18 19  1  0
 18 20  1  0
 20 21  2  0
  9  1  1  0
 21 15  1  0
 14  6  1  0
  1 22  1  1
  2 23  1  0
  2 24  1  0
  2 25  1  0
  3 26  1  0
  5 27  1  0
  5 28  1  0
  5 29  1  0
  6 30  1  1
  7 31  1  6
  8 32  1  0
  8 33  1  0
  8 34  1  0
 10 35  1  0
 10 36  1  0
 11 37  1  0
 12 38  1  0
 12 39  1  0
 14 40  1  1
 16 41  1  0
 17 42  1  0
 19 43  1  0
 20 44  1  0
 21 45  1  0
M  END
$$$$
