@<TRIPOS>MOLECULE
*****
 38 40 0 0 0
SMALL
GASTEIGER

@<TRIPOS>ATOM
      1 N          -2.2706    2.0531   -5.4463 N.1     1  UNL1       -0.1909
      2 C          -2.0631    1.2119   -4.6840 C.1     1  UNL1        0.0992
      3 C          -1.7901    0.1663   -3.7059 C.ar    1  UNL1        0.0521
      4 C          -1.5956   -1.1353   -4.1183 C.ar    1  UNL1       -0.0441
      5 C          -1.3387   -2.1269   -3.2060 C.ar    1  UNL1       -0.0570
      6 C          -1.2824   -1.7694   -1.8551 C.ar    1  UNL1       -0.0416
      7 C          -1.4737   -0.4859   -1.4437 C.ar    1  UNL1       -0.0272
      8 C          -1.7377    0.5254   -2.3965 C.ar    1  UNL1       -0.0396
      9 C          -1.4133   -0.1055   -0.0288 C.3     1  UNL1        0.0458
     10 N          -1.2235   -1.1506    0.8769 N.3     1  UNL1       -0.1720
     11 S          -0.7338   -0.6456    2.4438 S.O2    1  UNL1        0.0612
     12 O          -0.6476   -1.7669    3.4114 O.2     1  UNL1       -0.1528
     13 O          -1.7916    0.3150    2.9464 O.2     1  UNL1       -0.1528
     14 C           0.8060    0.1700    2.2843 C.ar    1  UNL1        0.1063
     15 C           1.9576   -0.5933    2.3920 C.ar    1  UNL1       -0.0353
     16 C           3.1944    0.0103    2.2721 C.ar    1  UNL1       -0.0591
     17 C           3.2779    1.3704    2.0456 C.ar    1  UNL1       -0.0477
     18 C           2.1510    2.1589    1.9333 C.ar    1  UNL1        0.0607
     19 C           2.2490    3.5927    1.6942 C.2     1  UNL1        0.3369
     20 O           3.3769    4.1227    1.5889 O.2     1  UNL1       -0.2451
     21 O           1.1131    4.3742    1.5821 O.3     1  UNL1       -0.4771
     22 C           0.9348    1.5130    2.0600 C.ar    1  UNL1       -0.0214
     23 C          -0.4476   -2.2639    0.3884 C.3     1  UNL1        0.0248
     24 C          -1.0058   -2.8466   -0.8529 C.3     1  UNL1       -0.0129
     25 H          -1.6511   -1.3507   -5.1734 H       1  UNL1        0.0630
     26 H          -1.1788   -3.1558   -3.4630 H       1  UNL1        0.0621
     27 H          -1.8807    1.5211   -2.0176 H       1  UNL1        0.0634
     28 H          -2.4093    0.3966    0.1939 H       1  UNL1        0.0493
     29 H          -0.6490    0.6873    0.1677 H       1  UNL1        0.0493
     30 H           1.8651   -1.6588    2.5698 H       1  UNL1        0.0637
     31 H           4.1036   -0.5540    2.3512 H       1  UNL1        0.0618
     32 H           4.2556    1.8661    1.9478 H       1  UNL1        0.0626
     33 H           1.2118    5.3593    1.7812 H       1  UNL1        0.2954
     34 H           0.0317    2.1085    1.9763 H       1  UNL1        0.0645
     35 H           0.5825   -1.8899    0.2173 H       1  UNL1        0.0447
     36 H          -0.3674   -3.0527    1.1635 H       1  UNL1        0.0447
     37 H          -0.2391   -3.5474   -1.2835 H       1  UNL1        0.0326
     38 H          -1.9202   -3.4234   -0.6133 H       1  UNL1        0.0326
@<TRIPOS>BOND
     1     1     2    3
     2     2     3    1
     3     3     4   ar
     4     4     5   ar
     5     5     6   ar
     6     6     7   ar
     7     7     8   ar
     8     7     9    1
     9     9    10    1
    10    10    11    1
    11    11    12    2
    12    11    13    2
    13    11    14    1
    14    14    15   ar
    15    15    16   ar
    16    16    17   ar
    17    17    18   ar
    18    18    19    1
    19    19    20    2
    20    19    21    1
    21    18    22   ar
    22    10    23    1
    23    23    24    1
    24     8     3   ar
    25    22    14   ar
    26    24     6    1
    27     4    25    1
    28     5    26    1
    29     8    27    1
    30     9    28    1
    31     9    29    1
    32    15    30    1
    33    16    31    1
    34    17    32    1
    35    21    33    1
    36    22    34    1
    37    23    35    1
    38    23    36    1
    39    24    37    1
    40    24    38    1
