@<TRIPOS>MOLECULE
*****
 194 199 0 0 0
SMALL
GASTEIGER

@<TRIPOS>ATOM
      1 C          -7.2292   -2.2602    2.6293 C.3     1  UNL1       -0.0626
      2 C          -5.8142   -1.8208    2.4758 C.3     1  UNL1       -0.0446
      3 C          -5.0136   -3.0260    1.9395 C.3     1  UNL1       -0.0626
      4 C          -5.5478   -0.6064    1.6734 C.3     1  UNL1       -0.0236
      5 C          -5.9580   -0.6713    0.1860 C.3     1  UNL1        0.0996
      6 N          -5.5689    0.5819   -0.4430 N.am    1  UNL1       -0.3025
      7 C          -4.1762    0.5783   -0.5783 C.2     1  UNL1        0.2339
      8 O          -3.3591   -0.3645   -0.2377 O.2     1  UNL1       -0.2738
      9 C          -3.2125    1.5491   -1.0881 C.3     1  UNL1        0.0995
     10 C          -3.6481    2.9521   -1.1579 C.3     1  UNL1       -0.0246
     11 C          -4.1632    3.5571    0.1305 C.3     1  UNL1       -0.0352
     12 C          -4.4550    5.0411   -0.0892 C.3     1  UNL1        0.0131
     13 N          -5.0758    5.5463    1.1032 N.am    1  UNL1       -0.2996
     14 C          -6.3902    4.8577    0.9563 C.2     1  UNL1        0.2971
     15 N          -7.7481    4.5644    1.4756 N.am    1  UNL1       -0.3134
     16 O          -6.6398    4.0954   -0.0904 O.2     1  UNL1       -0.2531
     17 N          -1.8824    1.3059   -0.6644 N.am    1  UNL1       -0.3025
     18 C          -0.6865    0.9343   -1.3808 C.2     1  UNL1        0.2343
     19 O          -1.0339    0.8637   -2.5786 O.2     1  UNL1       -0.2738
     20 C           0.4536    0.7786   -0.4970 C.3     1  UNL1        0.1034
     21 C           0.5736    1.6957    0.6683 C.3     1  UNL1       -0.0007
     22 C           0.4939    3.1269    0.2377 C.ar    1  UNL1       -0.0449
     23 C          -0.4715    3.8710    0.8590 C.ar    1  UNL1       -0.0551
     24 C          -0.7593    5.1836    0.4552 C.ar    1  UNL1       -0.0199
     25 C           0.0419    5.6018   -0.6183 C.ar    1  UNL1        0.1169
     26 O          -0.3713    6.9366   -0.8938 O.3     1  UNL1       -0.5068
     27 C           1.0083    4.8414   -1.2319 C.ar    1  UNL1       -0.0199
     28 C           1.2664    3.5544   -0.8110 C.ar    1  UNL1       -0.0551
     29 N           1.6653    0.4110   -1.1022 N.am    1  UNL1       -0.3021
     30 C           2.3565   -0.3825   -2.0331 C.2     1  UNL1        0.2362
     31 O           1.4664   -1.0828   -2.6401 O.2     1  UNL1       -0.2737
     32 CA          3.8047   -0.4346   -2.2852 C.3     1  UNL1        0.1226
     33 C           4.2779   -1.8818   -2.4466 C.3     1  UNL1        0.0711
     34 O           5.6510   -1.9651   -2.5974 O.3     1  UNL1       -0.3927
     35 N           4.4691    0.1623   -1.1304 N.am    1  UNL1       -0.3006
     36 C           5.6957    0.8639   -1.0215 C.2     1  UNL1        0.2343
     37 O           6.3196    0.9676   -2.1332 O.2     1  UNL1       -0.2738
     38 CA          6.2620    1.4553    0.2387 C.3     1  UNL1        0.1034
     39 C           5.9953    0.7563    1.4834 C.3     1  UNL1        0.0008
     40 C           6.4350   -0.6123    1.6811 C.ar    1  UNL1       -0.0270
     41 C           7.6720   -0.7804    2.2217 C.ar    1  UNL1        0.0308
     42 N           8.1897   -1.9798    2.4920 N.ar    1  UNL1       -0.2630
     43 C           7.6083   -3.1371    2.2878 C.ar    1  UNL1        0.0276
     44 C           6.3166   -3.0679    1.7270 C.ar    1  UNL1       -0.0433
     45 C           5.7809   -1.8259    1.4479 C.ar    1  UNL1       -0.0556
     46 N           7.5906    1.9203   -0.0339 N.am    1  UNL1       -0.3022
     47 C           8.2058    3.0600   -0.5945 C.2     1  UNL1        0.2343
     48 O           7.2161    3.8112   -0.9028 O.2     1  UNL1       -0.2738
     49 CA          9.6576    3.0871   -0.6835 C.3     1  UNL1        0.1034
     50 C          10.2903    4.4219   -0.4568 C.3     1  UNL1       -0.0007
     51 C          11.7903    4.2447   -0.6365 C.ar    1  UNL1       -0.0451
     52 C          12.2090    4.3225   -1.9743 C.ar    1  UNL1       -0.0571
     53 C          13.5635    4.1526   -2.3241 C.ar    1  UNL1       -0.0431
     54 C          14.5246    3.9001   -1.3413 C.ar    1  UNL1        0.0410
     55 CL         16.2181    3.6672   -1.6676 Cl      1  UNL1       -0.0835
     56 C          13.9446    3.8605   -0.1200 C.ar    1  UNL1       -0.0431
     57 C          12.7189    3.9883    0.4338 C.ar    1  UNL1       -0.0571
     58 N          10.2523    2.0257    0.0591 N.am    1  UNL1       -0.3022
     59 C          11.0344    0.9995   -0.4019 C.2     1  UNL1        0.2343
     60 O          11.3016    0.9238   -1.6665 O.2     1  UNL1       -0.2738
     61 CA         11.8073   -0.2266    0.0083 C.3     1  UNL1        0.1033
     62 C          10.9359   -1.2395    0.6616 C.3     1  UNL1       -0.0006
     63 C          11.7053   -2.4519    1.0442 C.ar    1  UNL1       -0.0445
     64 C          11.8869   -3.4678    0.1024 C.ar    1  UNL1       -0.0508
     65 C          12.5970   -4.5759    0.4910 C.ar    1  UNL1       -0.0176
     66 C          12.8050   -5.6348   -0.4137 C.ar    1  UNL1       -0.0540
     67 C          13.5175   -6.7201    0.0283 C.ar    1  UNL1       -0.0612
     68 C          14.0650   -6.8890    1.2999 C.ar    1  UNL1       -0.0612
     69 C          13.8509   -5.8258    2.1966 C.ar    1  UNL1       -0.0540
     70 C          13.1392   -4.7551    1.7377 C.ar    1  UNL1       -0.0179
     71 C          12.9773   -3.7613    2.7090 C.ar    1  UNL1       -0.0538
     72 C          12.2519   -2.6214    2.3236 C.ar    1  UNL1       -0.0579
     73 N          12.2853   -0.7476   -1.2684 N.am    1  UNL1       -0.3039
     74 C          13.6666   -0.4932   -1.4903 C.2     1  UNL1        0.2105
     75 C          14.2061   -1.0102   -2.7958 C.3     1  UNL1        0.0122
     76 O          14.3793    0.1263   -0.6410 O.2     1  UNL1       -0.2761
     77 C          -7.4087   -0.9306    0.0775 C.2     1  UNL1        0.2340
     78 O          -8.4986   -1.4642    0.2305 O.2     1  UNL1       -0.2738
     79 N          -8.0091    0.1419   -0.7910 N.am    1  UNL1       -0.3025
     80 C          -9.4844   -0.0737   -0.8441 C.3     1  UNL1        0.0997
     81 C         -10.1409    1.0384   -1.5905 C.3     1  UNL1       -0.0231
     82 C          -9.9003    2.3798   -0.9176 C.3     1  UNL1       -0.0201
     83 C         -10.5046    2.4139    0.4779 C.3     1  UNL1        0.0647
     84 N         -11.9639    2.2278    0.4349 N.pl3   1  UNL1       -0.2761
     85 C         -12.9334    2.0425    1.4925 C.cat   1  UNL1        0.3762
     86 N         -14.2036    2.7166    1.3330 N.pl3   1  UNL1       -0.2893
     87 N         -12.3024    1.2602    2.3113 N.pl3   1  UNL1       -0.1298
     88 C          -9.7408   -1.4292   -1.3640 C.2     1  UNL1        0.2365
     89 O          -8.8808   -1.7223   -2.2922 O.2     1  UNL1       -0.2735
     90 N         -10.7666   -2.2361   -0.8620 N.am    1  UNL1       -0.2884
     91 C         -11.7738   -1.8403    0.1325 C.3     1  UNL1        0.0156
     92 C         -11.3562   -2.7377    1.2957 C.3     1  UNL1       -0.0350
     93 C         -10.9932   -4.0166    0.5525 C.3     1  UNL1       -0.0243
     94 C         -11.1954   -3.5969   -0.9289 C.3     1  UNL1        0.1023
     95 C         -12.6005   -3.8175   -1.3130 C.2     1  UNL1        0.2342
     96 O         -13.7317   -3.4580   -1.7382 O.2     1  UNL1       -0.2738
     97 N         -12.8351   -5.2340   -1.0769 N.am    1  UNL1       -0.3027
     98 C         -14.2236   -5.6475   -1.3875 C.3     1  UNL1        0.0964
     99 C         -14.5666   -5.2963   -2.8047 C.3     1  UNL1       -0.0381
    100 C         -15.0723   -5.0081   -0.3663 C.2     1  UNL1        0.2306
    101 N         -14.4703   -4.2225    0.7016 N.am    1  UNL1       -0.3278
    102 O         -16.2641   -5.3327   -0.6938 O.2     1  UNL1       -0.2740
    103 H          -7.2752   -2.7749    3.6672 H       1  UNL1        0.0232
    104 H          -7.9025   -1.4142    2.7328 H       1  UNL1        0.0232
    105 H          -7.5051   -3.0794    1.9447 H       1  UNL1        0.0232
    106 H          -5.3876   -1.6290    3.5022 H       1  UNL1        0.0296
    107 H          -4.6737   -3.5905    2.8090 H       1  UNL1        0.0232
    108 H          -4.2043   -2.7065    1.3070 H       1  UNL1        0.0232
    109 H          -5.6761   -3.6783    1.3189 H       1  UNL1        0.0232
    110 H          -6.0716    0.2837    2.1419 H       1  UNL1        0.0290
    111 H          -4.4803   -0.3507    1.6995 H       1  UNL1        0.0290
    112 H          -5.3841   -1.5310   -0.1769 H       1  UNL1        0.0594
    113 H          -5.8490    1.4733   -0.8482 H       1  UNL1        0.1495
    114 H          -3.1530    1.2281   -2.2322 H       1  UNL1        0.0594
    115 H          -4.3552    3.1591   -2.0069 H       1  UNL1        0.0288
    116 H          -2.7471    3.5777   -1.4350 H       1  UNL1        0.0288
    117 H          -4.9419    3.0147    0.6327 H       1  UNL1        0.0281
    118 H          -3.2693    3.6023    0.8592 H       1  UNL1        0.0281
    119 H          -3.4803    5.5855   -0.2722 H       1  UNL1        0.0462
    120 H          -5.0314    5.2012   -1.0135 H       1  UNL1        0.0462
    121 H          -5.6813    5.8405    1.9564 H       1  UNL1        0.1502
    122 H          -8.0951    5.5678    1.4108 H       1  UNL1        0.1465
    123 H          -7.9898    3.5665    1.7650 H       1  UNL1        0.1465
    124 H          -1.9991    1.4830    0.3829 H       1  UNL1        0.1495
    125 H           0.1336   -0.2850    0.0005 H       1  UNL1        0.0598
    126 H          -0.2021    1.4806    1.4055 H       1  UNL1        0.0336
    127 H           1.5562    1.5470    1.2149 H       1  UNL1        0.0336
    128 H          -1.0522    3.4646    1.7072 H       1  UNL1        0.0621
    129 H          -1.5215    5.6863    1.0177 H       1  UNL1        0.0654
    130 H          -1.2873    6.9402   -1.3969 H       1  UNL1        0.2921
    131 H           1.4131    5.4991   -2.0049 H       1  UNL1        0.0654
    132 H           2.0259    3.0844   -1.3686 H       1  UNL1        0.0621
    133 H           2.4225    1.0073   -0.6368 H       1  UNL1        0.1495
    134 HA          4.1111    0.1430   -3.1611 H       1  UNL1        0.0618
    135 H1          3.9400   -2.5223   -1.6220 H       1  UNL1        0.0580
    136 H2          3.7910   -2.2077   -3.4099 H       1  UNL1        0.0580
    137 H           6.0846   -1.8856   -1.7138 H       1  UNL1        0.2095
    138 H           4.0417    0.0940   -0.1703 H       1  UNL1        0.1496
    139 HA          5.6467    2.4411    0.2882 H       1  UNL1        0.0598
    140 H           6.2882    1.4220    2.3602 H       1  UNL1        0.0336
    141 H           4.8565    0.7361    1.6164 H       1  UNL1        0.0336
    142 H           8.3351    0.0243    2.4775 H       1  UNL1        0.0832
    143 H           8.0134   -4.1018    2.4981 H       1  UNL1        0.0829
    144 H           5.7837   -3.9715    1.5332 H       1  UNL1        0.0633
    145 H           4.7973   -1.7597    1.0242 H       1  UNL1        0.0621
    146 H           8.1998    1.1273    0.3453 H       1  UNL1        0.1495
    147 HA          9.9139    2.8347   -1.7831 H       1  UNL1        0.0598
    148 H          10.0498    4.8695    0.5237 H       1  UNL1        0.0336
    149 H           9.9734    5.1210   -1.2339 H       1  UNL1        0.0336
    150 H          11.5111    4.5145   -2.7981 H       1  UNL1        0.0621
    151 H          13.8164    4.2206   -3.3647 H       1  UNL1        0.0632
    152 H          14.7038    3.6644    0.6685 H       1  UNL1        0.0632
    153 H          12.3082    3.9540    1.4067 H       1  UNL1        0.0621
    154 H          10.1928    1.8006    1.1076 H       1  UNL1        0.1495
    155 HA         12.6335    0.0628    0.6916 H       1  UNL1        0.0598
    156 H          10.4793   -0.7888    1.5853 H       1  UNL1        0.0336
    157 H          10.0780   -1.5722    0.0409 H       1  UNL1        0.0336
    158 H          11.5055   -3.4324   -0.9054 H       1  UNL1        0.0626
    159 H          12.4337   -5.6224   -1.4318 H       1  UNL1        0.0624
    160 H          13.7458   -7.6096   -0.5888 H       1  UNL1        0.0618
    161 H          14.6204   -7.7468    1.6385 H       1  UNL1        0.0618
    162 H          14.2560   -5.9052    3.2130 H       1  UNL1        0.0624
    163 H          13.3132   -3.6961    3.7300 H       1  UNL1        0.0624
    164 H          12.0604   -1.8014    3.0011 H       1  UNL1        0.0620
    165 H          11.6307   -1.2479   -1.8958 H       1  UNL1        0.1495
    166 H          13.6591   -0.4198   -3.5927 H       1  UNL1        0.0322
    167 H          15.2665   -0.7629   -2.8802 H       1  UNL1        0.0322
    168 H          13.9152   -2.0420   -2.9578 H       1  UNL1        0.0322
    169 H          -7.6550    0.9946   -1.3480 H       1  UNL1        0.1495
    170 H          -9.8443   -0.1037    0.2131 H       1  UNL1        0.0594
    171 H          -9.8241    1.0623   -2.6455 H       1  UNL1        0.0289
    172 H         -11.2421    0.8838   -1.6149 H       1  UNL1        0.0289
    173 H         -10.3352    3.1850   -1.5181 H       1  UNL1        0.0296
    174 H          -8.8047    2.5958   -0.8111 H       1  UNL1        0.0296
    175 H         -10.0382    1.6499    1.1298 H       1  UNL1        0.0655
    176 H         -10.3283    3.4042    0.9523 H       1  UNL1        0.0655
    177 H         -12.3199    2.2593   -0.5804 H       1  UNL1        0.2579
    178 H         -14.3414    2.8698    2.3730 H       1  UNL1        0.2546
    179 H         -14.5695    2.9843    2.2635 H       1  UNL1        0.2546
    180 H         -12.7200    0.9051    3.2139 H       1  UNL1        0.3062
    181 H         -12.7619   -2.1528   -0.1786 H       1  UNL1        0.0465
    182 H         -11.7013   -0.7948    0.4237 H       1  UNL1        0.0465
    183 H         -12.1675   -2.8920    2.0013 H       1  UNL1        0.0281
    184 H         -10.5006   -2.3292    1.8529 H       1  UNL1        0.0281
    185 H         -11.6149   -4.8667    0.8087 H       1  UNL1        0.0288
    186 H          -9.9336   -4.2434    0.7534 H       1  UNL1        0.0288
    187 H         -10.5481   -4.2494   -1.5146 H       1  UNL1        0.0597
    188 H         -12.1748   -6.0080   -0.7285 H       1  UNL1        0.1495
    189 H         -14.2303   -6.7704   -1.3334 H       1  UNL1        0.0592
    190 H         -14.9382   -6.2039   -3.3861 H       1  UNL1        0.0252
    191 H         -15.3633   -4.5480   -2.9034 H       1  UNL1        0.0252
    192 H         -13.6580   -4.9935   -3.3821 H       1  UNL1        0.0252
    193 H         -14.8544   -3.3508    1.1222 H       1  UNL1        0.1450
    194 H         -15.1936   -3.4579    0.8072 H       1  UNL1        0.1450
@<TRIPOS>BOND
     1     1     2    1
     2     2     3    1
     3     2     4    1
     4     4     5    1
     5     5     6    1
     6     6     7   am
     7     7     8    2
     8     7     9    1
     9     9    10    1
    10    10    11    1
    11    11    12    1
    12    12    13    1
    13    13    14   am
    14    14    15   am
    15    14    16    2
    16     9    17    1
    17    17    18   am
    18    18    19    2
    19    18    20    1
    20    20    21    1
    21    21    22    1
    22    22    23   ar
    23    23    24   ar
    24    24    25   ar
    25    25    26    1
    26    25    27   ar
    27    27    28   ar
    28    20    29    1
    29    29    30   am
    30    30    31    2
    31    30    32    1
    32    32    33    1
    33    33    34    1
    34    32    35    1
    35    35    36   am
    36    36    37    2
    37    36    38    1
    38    38    39    1
    39    39    40    1
    40    40    41   ar
    41    41    42   ar
    42    42    43   ar
    43    43    44   ar
    44    44    45   ar
    45    38    46    1
    46    46    47   am
    47    47    48    2
    48    47    49    1
    49    49    50    1
    50    50    51    1
    51    51    52   ar
    52    52    53   ar
    53    53    54   ar
    54    54    55    1
    55    54    56   ar
    56    56    57   ar
    57    49    58    1
    58    58    59   am
    59    59    60    2
    60    59    61    1
    61    61    62    1
    62    62    63    1
    63    63    64   ar
    64    64    65   ar
    65    65    66   ar
    66    66    67   ar
    67    67    68   ar
    68    68    69   ar
    69    69    70   ar
    70    70    71   ar
    71    71    72   ar
    72    61    73    1
    73    73    74   am
    74    74    75    1
    75    74    76    2
    76     5    77    1
    77    77    78    2
    78    77    79   am
    79    79    80    1
    80    80    81    1
    81    81    82    1
    82    82    83    1
    83    83    84    1
    84    84    85    1
    85    85    86    1
    86    85    87    2
    87    80    88    1
    88    88    89    2
    89    88    90   am
    90    90    91    1
    91    91    92    1
    92    92    93    1
    93    93    94    1
    94    94    95    1
    95    95    96    2
    96    95    97   am
    97    97    98    1
    98    98    99    1
    99    98   100    1
   100   100   101   am
   101   100   102    2
   102    28    22   ar
   103    45    40   ar
   104    57    51   ar
   105    72    63   ar
   106    94    90    1
   107    70    65   ar
   108     1   103    1
   109     1   104    1
   110     1   105    1
   111     2   106    1
   112     3   107    1
   113     3   108    1
   114     3   109    1
   115     4   110    1
   116     4   111    1
   117     5   112    1
   118     6   113    1
   119     9   114    1
   120    10   115    1
   121    10   116    1
   122    11   117    1
   123    11   118    1
   124    12   119    1
   125    12   120    1
   126    13   121    1
   127    15   122    1
   128    15   123    1
   129    17   124    1
   130    20   125    1
   131    21   126    1
   132    21   127    1
   133    23   128    1
   134    24   129    1
   135    26   130    1
   136    27   131    1
   137    28   132    1
   138    29   133    1
   139    32   134    1
   140    33   135    1
   141    33   136    1
   142    34   137    1
   143    35   138    1
   144    38   139    1
   145    39   140    1
   146    39   141    1
   147    41   142    1
   148    43   143    1
   149    44   144    1
   150    45   145    1
   151    46   146    1
   152    49   147    1
   153    50   148    1
   154    50   149    1
   155    52   150    1
   156    53   151    1
   157    56   152    1
   158    57   153    1
   159    58   154    1
   160    61   155    1
   161    62   156    1
   162    62   157    1
   163    64   158    1
   164    66   159    1
   165    67   160    1
   166    68   161    1
   167    69   162    1
   168    71   163    1
   169    72   164    1
   170    73   165    1
   171    75   166    1
   172    75   167    1
   173    75   168    1
   174    79   169    1
   175    80   170    1
   176    81   171    1
   177    81   172    1
   178    82   173    1
   179    82   174    1
   180    83   175    1
   181    83   176    1
   182    84   177    1
   183    86   178    1
   184    86   179    1
   185    87   180    1
   186    91   181    1
   187    91   182    1
   188    92   183    1
   189    92   184    1
   190    93   185    1
   191    93   186    1
   192    94   187    1
   193    97   188    1
   194    98   189    1
   195    99   190    1
   196    99   191    1
   197    99   192    1
   198   101   193    1
   199   101   194    1
