
     RDKit          3D

194199  0  0  0  0  0  0  0  0999 V2000
   -7.2292   -2.2602    2.6293 C   0  0  0  0  0  0  0  0  0  0  0  0
   -5.8142   -1.8208    2.4758 C   0  0  0  0  0  0  0  0  0  0  0  0
   -5.0136   -3.0260    1.9395 C   0  0  0  0  0  0  0  0  0  0  0  0
   -5.5478   -0.6064    1.6734 C   0  0  0  0  0  0  0  0  0  0  0  0
   -5.9580   -0.6713    0.1860 C   0  0  2  0  0  0  0  0  0  0  0  0
   -5.5689    0.5819   -0.4430 N   0  0  0  0  0  0  0  0  0  0  0  0
   -4.1762    0.5783   -0.5783 C   0  0  0  0  0  0  0  0  0  0  0  0
   -3.3591   -0.3645   -0.2377 O   0  0  0  0  0  0  0  0  0  0  0  0
   -3.2125    1.5491   -1.0881 C   0  0  1  0  0  0  0  0  0  0  0  0
   -3.6481    2.9521   -1.1579 C   0  0  0  0  0  0  0  0  0  0  0  0
   -4.1632    3.5571    0.1305 C   0  0  0  0  0  0  0  0  0  0  0  0
   -4.4550    5.0411   -0.0892 C   0  0  0  0  0  0  0  0  0  0  0  0
   -5.0758    5.5463    1.1032 N   0  0  0  0  0  0  0  0  0  0  0  0
   -6.3902    4.8577    0.9563 C   0  0  0  0  0  0  0  0  0  0  0  0
   -7.7481    4.5644    1.4756 N   0  0  0  0  0  0  0  0  0  0  0  0
   -6.6398    4.0954   -0.0904 O   0  0  0  0  0  0  0  0  0  0  0  0
   -1.8824    1.3059   -0.6644 N   0  0  0  0  0  0  0  0  0  0  0  0
   -0.6865    0.9343   -1.3808 C   0  0  0  0  0  0  0  0  0  0  0  0
   -1.0339    0.8637   -2.5786 O   0  0  0  0  0  0  0  0  0  0  0  0
    0.4536    0.7786   -0.4970 C   0  0  2  0  0  0  0  0  0  0  0  0
    0.5736    1.6957    0.6683 C   0  0  0  0  0  0  0  0  0  0  0  0
    0.4939    3.1269    0.2377 C   0  0  0  0  0  0  0  0  0  0  0  0
   -0.4715    3.8710    0.8590 C   0  0  0  0  0  0  0  0  0  0  0  0
   -0.7593    5.1836    0.4552 C   0  0  0  0  0  0  0  0  0  0  0  0
    0.0419    5.6018   -0.6183 C   0  0  0  0  0  0  0  0  0  0  0  0
   -0.3713    6.9366   -0.8938 O   0  0  0  0  0  0  0  0  0  0  0  0
    1.0083    4.8414   -1.2319 C   0  0  0  0  0  0  0  0  0  0  0  0
    1.2664    3.5544   -0.8110 C   0  0  0  0  0  0  0  0  0  0  0  0
    1.6653    0.4110   -1.1022 N   0  0  0  0  0  0  0  0  0  0  0  0
    2.3565   -0.3825   -2.0331 C   0  0  0  0  0  0  0  0  0  0  0  0
    1.4664   -1.0828   -2.6401 O   0  0  0  0  0  0  0  0  0  0  0  0
    3.8047   -0.4346   -2.2852 C   0  0  2  0  0  0  0  0  0  0  0  0
    4.2779   -1.8818   -2.4466 C   0  0  0  0  0  0  0  0  0  0  0  0
    5.6510   -1.9651   -2.5974 O   0  0  0  0  0  0  0  0  0  0  0  0
    4.4691    0.1623   -1.1304 N   0  0  0  0  0  0  0  0  0  0  0  0
    5.6957    0.8639   -1.0215 C   0  0  0  0  0  0  0  0  0  0  0  0
    6.3196    0.9676   -2.1332 O   0  0  0  0  0  0  0  0  0  0  0  0
    6.2620    1.4553    0.2387 C   0  0  1  0  0  0  0  0  0  0  0  0
    5.9953    0.7563    1.4834 C   0  0  0  0  0  0  0  0  0  0  0  0
    6.4350   -0.6123    1.6811 C   0  0  0  0  0  0  0  0  0  0  0  0
    7.6720   -0.7804    2.2217 C   0  0  0  0  0  0  0  0  0  0  0  0
    8.1897   -1.9798    2.4920 N   0  0  0  0  0  0  0  0  0  0  0  0
    7.6083   -3.1371    2.2878 C   0  0  0  0  0  0  0  0  0  0  0  0
    6.3166   -3.0679    1.7270 C   0  0  0  0  0  0  0  0  0  0  0  0
    5.7809   -1.8259    1.4479 C   0  0  0  0  0  0  0  0  0  0  0  0
    7.5906    1.9203   -0.0339 N   0  0  0  0  0  0  0  0  0  0  0  0
    8.2058    3.0600   -0.5945 C   0  0  0  0  0  0  0  0  0  0  0  0
    7.2161    3.8112   -0.9028 O   0  0  0  0  0  0  0  0  0  0  0  0
    9.6576    3.0871   -0.6835 C   0  0  1  0  0  0  0  0  0  0  0  0
   10.2903    4.4219   -0.4568 C   0  0  0  0  0  0  0  0  0  0  0  0
   11.7903    4.2447   -0.6365 C   0  0  0  0  0  0  0  0  0  0  0  0
   12.2090    4.3225   -1.9743 C   0  0  0  0  0  0  0  0  0  0  0  0
   13.5635    4.1526   -2.3241 C   0  0  0  0  0  0  0  0  0  0  0  0
   14.5246    3.9001   -1.3413 C   0  0  0  0  0  0  0  0  0  0  0  0
   16.2181    3.6672   -1.6676 Cl  0  0  0  0  0  0  0  0  0  0  0  0
   13.9446    3.8605   -0.1200 C   0  0  0  0  0  0  0  0  0  0  0  0
   12.7189    3.9883    0.4338 C   0  0  0  0  0  0  0  0  0  0  0  0
   10.2523    2.0257    0.0591 N   0  0  0  0  0  0  0  0  0  0  0  0
   11.0344    0.9995   -0.4019 C   0  0  0  0  0  0  0  0  0  0  0  0
   11.3016    0.9238   -1.6665 O   0  0  0  0  0  0  0  0  0  0  0  0
   11.8073   -0.2266    0.0083 C   0  0  1  0  0  0  0  0  0  0  0  0
   10.9359   -1.2395    0.6616 C   0  0  0  0  0  0  0  0  0  0  0  0
   11.7053   -2.4519    1.0442 C   0  0  0  0  0  0  0  0  0  0  0  0
   11.8869   -3.4678    0.1024 C   0  0  0  0  0  0  0  0  0  0  0  0
   12.5970   -4.5759    0.4910 C   0  0  0  0  0  0  0  0  0  0  0  0
   12.8050   -5.6348   -0.4137 C   0  0  0  0  0  0  0  0  0  0  0  0
   13.5175   -6.7201    0.0283 C   0  0  0  0  0  0  0  0  0  0  0  0
   14.0650   -6.8890    1.2999 C   0  0  0  0  0  0  0  0  0  0  0  0
   13.8509   -5.8258    2.1966 C   0  0  0  0  0  0  0  0  0  0  0  0
   13.1392   -4.7551    1.7377 C   0  0  0  0  0  0  0  0  0  0  0  0
   12.9773   -3.7613    2.7090 C   0  0  0  0  0  0  0  0  0  0  0  0
   12.2519   -2.6214    2.3236 C   0  0  0  0  0  0  0  0  0  0  0  0
   12.2853   -0.7476   -1.2684 N   0  0  0  0  0  0  0  0  0  0  0  0
   13.6666   -0.4932   -1.4903 C   0  0  0  0  0  0  0  0  0  0  0  0
   14.2061   -1.0102   -2.7958 C   0  0  0  0  0  0  0  0  0  0  0  0
   14.3793    0.1263   -0.6410 O   0  0  0  0  0  0  0  0  0  0  0  0
   -7.4087   -0.9306    0.0775 C   0  0  0  0  0  0  0  0  0  0  0  0
   -8.4986   -1.4642    0.2305 O   0  0  0  0  0  0  0  0  0  0  0  0
   -8.0091    0.1419   -0.7910 N   0  0  0  0  0  0  0  0  0  0  0  0
   -9.4844   -0.0737   -0.8441 C   0  0  1  0  0  0  0  0  0  0  0  0
  -10.1409    1.0384   -1.5905 C   0  0  0  0  0  0  0  0  0  0  0  0
   -9.9003    2.3798   -0.9176 C   0  0  0  0  0  0  0  0  0  0  0  0
  -10.5046    2.4139    0.4779 C   0  0  0  0  0  0  0  0  0  0  0  0
  -11.9639    2.2278    0.4349 N   0  0  0  0  0  0  0  0  0  0  0  0
  -12.9334    2.0425    1.4925 C   0  0  0  0  0  0  0  0  0  0  0  0
  -14.2036    2.7166    1.3330 N   0  0  0  0  0  0  0  0  0  0  0  0
  -12.3024    1.2602    2.3113 N   0  0  0  0  0  0  0  0  0  0  0  0
   -9.7408   -1.4292   -1.3640 C   0  0  0  0  0  0  0  0  0  0  0  0
   -8.8808   -1.7223   -2.2922 O   0  0  0  0  0  0  0  0  0  0  0  0
  -10.7666   -2.2361   -0.8620 N   0  0  0  0  0  0  0  0  0  0  0  0
  -11.7738   -1.8403    0.1325 C   0  0  0  0  0  0  0  0  0  0  0  0
  -11.3562   -2.7377    1.2957 C   0  0  0  0  0  0  0  0  0  0  0  0
  -10.9932   -4.0166    0.5525 C   0  0  0  0  0  0  0  0  0  0  0  0
  -11.1954   -3.5969   -0.9289 C   0  0  1  0  0  0  0  0  0  0  0  0
  -12.6005   -3.8175   -1.3130 C   0  0  0  0  0  0  0  0  0  0  0  0
  -13.7317   -3.4580   -1.7382 O   0  0  0  0  0  0  0  0  0  0  0  0
  -12.8351   -5.2340   -1.0769 N   0  0  0  0  0  0  0  0  0  0  0  0
  -14.2236   -5.6475   -1.3875 C   0  0  2  0  0  0  0  0  0  0  0  0
  -14.5666   -5.2963   -2.8047 C   0  0  0  0  0  0  0  0  0  0  0  0
  -15.0723   -5.0081   -0.3663 C   0  0  0  0  0  0  0  0  0  0  0  0
  -14.4703   -4.2225    0.7016 N   0  0  0  0  0  0  0  0  0  0  0  0
  -16.2641   -5.3327   -0.6938 O   0  0  0  0  0  0  0  0  0  0  0  0
   -7.2752   -2.7749    3.6672 H   0  0  0  0  0  0  0  0  0  0  0  0
   -7.9025   -1.4142    2.7328 H   0  0  0  0  0  0  0  0  0  0  0  0
   -7.5051   -3.0794    1.9447 H   0  0  0  0  0  0  0  0  0  0  0  0
   -5.3876   -1.6290    3.5022 H   0  0  0  0  0  0  0  0  0  0  0  0
   -4.6737   -3.5905    2.8090 H   0  0  0  0  0  0  0  0  0  0  0  0
   -4.2043   -2.7065    1.3070 H   0  0  0  0  0  0  0  0  0  0  0  0
   -5.6761   -3.6783    1.3189 H   0  0  0  0  0  0  0  0  0  0  0  0
   -6.0716    0.2837    2.1419 H   0  0  0  0  0  0  0  0  0  0  0  0
   -4.4803   -0.3507    1.6995 H   0  0  0  0  0  0  0  0  0  0  0  0
   -5.3841   -1.5310   -0.1769 H   0  0  0  0  0  0  0  0  0  0  0  0
   -5.8490    1.4733   -0.8482 H   0  0  0  0  0  0  0  0  0  0  0  0
   -3.1530    1.2281   -2.2322 H   0  0  0  0  0  0  0  0  0  0  0  0
   -4.3552    3.1591   -2.0069 H   0  0  0  0  0  0  0  0  0  0  0  0
   -2.7471    3.5777   -1.4350 H   0  0  0  0  0  0  0  0  0  0  0  0
   -4.9419    3.0147    0.6327 H   0  0  0  0  0  0  0  0  0  0  0  0
   -3.2693    3.6023    0.8592 H   0  0  0  0  0  0  0  0  0  0  0  0
   -3.4803    5.5855   -0.2722 H   0  0  0  0  0  0  0  0  0  0  0  0
   -5.0314    5.2012   -1.0135 H   0  0  0  0  0  0  0  0  0  0  0  0
   -5.6813    5.8405    1.9564 H   0  0  0  0  0  0  0  0  0  0  0  0
   -8.0951    5.5678    1.4108 H   0  0  0  0  0  0  0  0  0  0  0  0
   -7.9898    3.5665    1.7650 H   0  0  0  0  0  0  0  0  0  0  0  0
   -1.9991    1.4830    0.3829 H   0  0  0  0  0  0  0  0  0  0  0  0
    0.1336   -0.2850    0.0005 H   0  0  0  0  0  0  0  0  0  0  0  0
   -0.2021    1.4806    1.4055 H   0  0  0  0  0  0  0  0  0  0  0  0
    1.5562    1.5470    1.2149 H   0  0  0  0  0  0  0  0  0  0  0  0
   -1.0522    3.4646    1.7072 H   0  0  0  0  0  0  0  0  0  0  0  0
   -1.5215    5.6863    1.0177 H   0  0  0  0  0  0  0  0  0  0  0  0
   -1.2873    6.9402   -1.3969 H   0  0  0  0  0  0  0  0  0  0  0  0
    1.4131    5.4991   -2.0049 H   0  0  0  0  0  0  0  0  0  0  0  0
    2.0259    3.0844   -1.3686 H   0  0  0  0  0  0  0  0  0  0  0  0
    2.4225    1.0073   -0.6368 H   0  0  0  0  0  0  0  0  0  0  0  0
    4.1111    0.1430   -3.1611 H   0  0  0  0  0  0  0  0  0  0  0  0
    3.9400   -2.5223   -1.6220 H   0  0  0  0  0  0  0  0  0  0  0  0
    3.7910   -2.2077   -3.4099 H   0  0  0  0  0  0  0  0  0  0  0  0
    6.0846   -1.8856   -1.7138 H   0  0  0  0  0  0  0  0  0  0  0  0
    4.0417    0.0940   -0.1703 H   0  0  0  0  0  0  0  0  0  0  0  0
    5.6467    2.4411    0.2882 H   0  0  0  0  0  0  0  0  0  0  0  0
    6.2882    1.4220    2.3602 H   0  0  0  0  0  0  0  0  0  0  0  0
    4.8565    0.7361    1.6164 H   0  0  0  0  0  0  0  0  0  0  0  0
    8.3351    0.0243    2.4775 H   0  0  0  0  0  0  0  0  0  0  0  0
    8.0134   -4.1018    2.4981 H   0  0  0  0  0  0  0  0  0  0  0  0
    5.7837   -3.9715    1.5332 H   0  0  0  0  0  0  0  0  0  0  0  0
    4.7973   -1.7597    1.0242 H   0  0  0  0  0  0  0  0  0  0  0  0
    8.1998    1.1273    0.3453 H   0  0  0  0  0  0  0  0  0  0  0  0
    9.9139    2.8347   -1.7831 H   0  0  0  0  0  0  0  0  0  0  0  0
   10.0498    4.8695    0.5237 H   0  0  0  0  0  0  0  0  0  0  0  0
    9.9734    5.1210   -1.2339 H   0  0  0  0  0  0  0  0  0  0  0  0
   11.5111    4.5145   -2.7981 H   0  0  0  0  0  0  0  0  0  0  0  0
   13.8164    4.2206   -3.3647 H   0  0  0  0  0  0  0  0  0  0  0  0
   14.7038    3.6644    0.6685 H   0  0  0  0  0  0  0  0  0  0  0  0
   12.3082    3.9540    1.4067 H   0  0  0  0  0  0  0  0  0  0  0  0
   10.1928    1.8006    1.1076 H   0  0  0  0  0  0  0  0  0  0  0  0
   12.6335    0.0628    0.6916 H   0  0  0  0  0  0  0  0  0  0  0  0
   10.4793   -0.7888    1.5853 H   0  0  0  0  0  0  0  0  0  0  0  0
   10.0780   -1.5722    0.0409 H   0  0  0  0  0  0  0  0  0  0  0  0
   11.5055   -3.4324   -0.9054 H   0  0  0  0  0  0  0  0  0  0  0  0
   12.4337   -5.6224   -1.4318 H   0  0  0  0  0  0  0  0  0  0  0  0
   13.7458   -7.6096   -0.5888 H   0  0  0  0  0  0  0  0  0  0  0  0
   14.6204   -7.7468    1.6385 H   0  0  0  0  0  0  0  0  0  0  0  0
   14.2560   -5.9052    3.2130 H   0  0  0  0  0  0  0  0  0  0  0  0
   13.3132   -3.6961    3.7300 H   0  0  0  0  0  0  0  0  0  0  0  0
   12.0604   -1.8014    3.0011 H   0  0  0  0  0  0  0  0  0  0  0  0
   11.6307   -1.2479   -1.8958 H   0  0  0  0  0  0  0  0  0  0  0  0
   13.6591   -0.4198   -3.5927 H   0  0  0  0  0  0  0  0  0  0  0  0
   15.2665   -0.7629   -2.8802 H   0  0  0  0  0  0  0  0  0  0  0  0
   13.9152   -2.0420   -2.9578 H   0  0  0  0  0  0  0  0  0  0  0  0
   -7.6550    0.9946   -1.3480 H   0  0  0  0  0  0  0  0  0  0  0  0
   -9.8443   -0.1037    0.2131 H   0  0  0  0  0  0  0  0  0  0  0  0
   -9.8241    1.0623   -2.6455 H   0  0  0  0  0  0  0  0  0  0  0  0
  -11.2421    0.8838   -1.6149 H   0  0  0  0  0  0  0  0  0  0  0  0
  -10.3352    3.1850   -1.5181 H   0  0  0  0  0  0  0  0  0  0  0  0
   -8.8047    2.5958   -0.8111 H   0  0  0  0  0  0  0  0  0  0  0  0
  -10.0382    1.6499    1.1298 H   0  0  0  0  0  0  0  0  0  0  0  0
  -10.3283    3.4042    0.9523 H   0  0  0  0  0  0  0  0  0  0  0  0
  -12.3199    2.2593   -0.5804 H   0  0  0  0  0  0  0  0  0  0  0  0
  -14.3414    2.8698    2.3730 H   0  0  0  0  0  0  0  0  0  0  0  0
  -14.5695    2.9843    2.2635 H   0  0  0  0  0  0  0  0  0  0  0  0
  -12.7200    0.9051    3.2139 H   0  0  0  0  0  0  0  0  0  0  0  0
  -12.7619   -2.1528   -0.1786 H   0  0  0  0  0  0  0  0  0  0  0  0
  -11.7013   -0.7948    0.4237 H   0  0  0  0  0  0  0  0  0  0  0  0
  -12.1675   -2.8920    2.0013 H   0  0  0  0  0  0  0  0  0  0  0  0
  -10.5006   -2.3292    1.8529 H   0  0  0  0  0  0  0  0  0  0  0  0
  -11.6149   -4.8667    0.8087 H   0  0  0  0  0  0  0  0  0  0  0  0
   -9.9336   -4.2434    0.7534 H   0  0  0  0  0  0  0  0  0  0  0  0
  -10.5481   -4.2494   -1.5146 H   0  0  0  0  0  0  0  0  0  0  0  0
  -12.1748   -6.0080   -0.7285 H   0  0  0  0  0  0  0  0  0  0  0  0
  -14.2303   -6.7704   -1.3334 H   0  0  0  0  0  0  0  0  0  0  0  0
  -14.9382   -6.2039   -3.3861 H   0  0  0  0  0  0  0  0  0  0  0  0
  -15.3633   -4.5480   -2.9034 H   0  0  0  0  0  0  0  0  0  0  0  0
  -13.6580   -4.9935   -3.3821 H   0  0  0  0  0  0  0  0  0  0  0  0
  -14.8544   -3.3508    1.1222 H   0  0  0  0  0  0  0  0  0  0  0  0
  -15.1936   -3.4579    0.8072 H   0  0  0  0  0  0  0  0  0  0  0  0
  1  2  1  0
  2  3  1  0
  2  4  1  0
  4  5  1  0
  5  6  1  0
  6  7  1  0
  7  8  2  0
  7  9  1  0
  9 10  1  0
 10 11  1  0
 11 12  1  0
 12 13  1  0
 13 14  1  0
 14 15  1  0
 14 16  2  0
  9 17  1  0
 17 18  1  0
 18 19  2  0
 18 20  1  0
 20 21  1  0
 21 22  1  0
 22 23  2  0
 23 24  1  0
 24 25  2  0
 25 26  1  0
 25 27  1  0
 27 28  2  0
 20 29  1  0
 29 30  1  0
 30 31  2  0
 30 32  1  0
 32 33  1  0
 33 34  1  0
 32 35  1  0
 35 36  1  0
 36 37  2  0
 36 38  1  0
 38 39  1  0
 39 40  1  0
 40 41  2  0
 41 42  1  0
 42 43  2  0
 43 44  1  0
 44 45  2  0
 38 46  1  0
 46 47  1  0
 47 48  2  0
 47 49  1  0
 49 50  1  0
 50 51  1  0
 51 52  2  0
 52 53  1  0
 53 54  2  0
 54 55  1  0
 54 56  1  0
 56 57  2  0
 49 58  1  0
 58 59  1  0
 59 60  2  0
 59 61  1  0
 61 62  1  0
 62 63  1  0
 63 64  2  0
 64 65  1  0
 65 66  2  0
 66 67  1  0
 67 68  2  0
 68 69  1  0
 69 70  2  0
 70 71  1  0
 71 72  2  0
 61 73  1  0
 73 74  1  0
 74 75  1  0
 74 76  2  0
  5 77  1  0
 77 78  2  0
 77 79  1  0
 79 80  1  0
 80 81  1  0
 81 82  1  0
 82 83  1  0
 83 84  1  0
 84 85  1  0
 85 86  1  0
 85 87  2  3
 80 88  1  0
 88 89  2  0
 88 90  1  0
 90 91  1  0
 91 92  1  0
 92 93  1  0
 93 94  1  0
 94 95  1  0
 95 96  2  0
 95 97  1  0
 97 98  1  0
 98 99  1  0
 98100  1  0
100101  1  0
100102  2  0
 28 22  1  0
 45 40  1  0
 57 51  1  0
 72 63  1  0
 94 90  1  0
 70 65  1  0
  1103  1  0
  1104  1  0
  1105  1  0
  2106  1  0
  3107  1  0
  3108  1  0
  3109  1  0
  4110  1  0
  4111  1  0
  5112  1  6
  6113  1  0
  9114  1  6
 10115  1  0
 10116  1  0
 11117  1  0
 11118  1  0
 12119  1  0
 12120  1  0
 13121  1  0
 15122  1  0
 15123  1  0
 17124  1  0
 20125  1  1
 21126  1  0
 21127  1  0
 23128  1  0
 24129  1  0
 26130  1  0
 27131  1  0
 28132  1  0
 29133  1  0
 32134  1  6
 33135  1  0
 33136  1  0
 34137  1  0
 35138  1  0
 38139  1  1
 39140  1  0
 39141  1  0
 41142  1  0
 43143  1  0
 44144  1  0
 45145  1  0
 46146  1  0
 49147  1  6
 50148  1  0
 50149  1  0
 52150  1  0
 53151  1  0
 56152  1  0
 57153  1  0
 58154  1  0
 61155  1  1
 62156  1  0
 62157  1  0
 64158  1  0
 66159  1  0
 67160  1  0
 68161  1  0
 69162  1  0
 71163  1  0
 72164  1  0
 73165  1  0
 75166  1  0
 75167  1  0
 75168  1  0
 79169  1  0
 80170  1  1
 81171  1  0
 81172  1  0
 82173  1  0
 82174  1  0
 83175  1  0
 83176  1  0
 84177  1  0
 86178  1  0
 86179  1  0
 87180  1  0
 91181  1  0
 91182  1  0
 92183  1  0
 92184  1  0
 93185  1  0
 93186  1  0
 94187  1  6
 97188  1  0
 98189  1  6
 99190  1  0
 99191  1  0
 99192  1  0
101193  1  0
101194  1  0
M  END
$$$$
