@<TRIPOS>MOLECULE
*****
 62 66 0 0 0
SMALL
GASTEIGER

@<TRIPOS>ATOM
      1 C          -6.7450    4.7282    0.4815 C.3     1  UNL1        0.0302
      2 N          -6.0218    3.4873    0.3743 N.ar    1  UNL1       -0.2738
      3 C          -4.7067    3.3152    0.2904 C.ar    1  UNL1        0.0343
      4 C          -4.3898    1.9428    0.1994 C.ar    1  UNL1        0.0364
      5 C          -3.0262    1.4585    0.0961 C.ar    1  UNL1        0.0637
      6 C          -1.9366    2.3578    0.0822 C.ar    1  UNL1       -0.0264
      7 C          -0.8026    1.6151   -0.0218 C.ar    1  UNL1        0.0192
      8 C           0.5509    1.9662   -0.0800 C.ar    1  UNL1        0.0389
      9 N           1.5290    1.0592   -0.1839 N.ar    1  UNL1       -0.2395
     10 C           1.2206   -0.2457   -0.2359 C.ar    1  UNL1        0.1249
     11 N           2.2765   -1.1823   -0.3458 N.pl3   1  UNL1       -0.2982
     12 C           3.6259   -0.8058   -0.4023 C.ar    1  UNL1        0.0510
     13 C           4.3803   -1.1460   -1.5074 C.ar    1  UNL1       -0.0385
     14 C           5.7120   -0.7750   -1.5641 C.ar    1  UNL1       -0.0507
     15 C           6.3305   -0.0706   -0.5533 C.ar    1  UNL1        0.0015
     16 C           7.7485    0.3157   -0.6311 C.ar    1  UNL1        0.0682
     17 C           8.3154    0.8565   -1.7643 C.ar    1  UNL1        0.0533
     18 N           9.6074    1.0869   -1.4884 N.ar    1  UNL1       -0.2434
     19 C           9.8361    0.7021   -0.2256 C.ar    1  UNL1        0.0961
     20 N           8.6967    0.2338    0.2874 N.ar    1  UNL1       -0.3332
     21 C           8.5334   -0.2791    1.6323 C.3     1  UNL1        0.0133
     22 C           5.5697    0.2651    0.5467 C.ar    1  UNL1       -0.0324
     23 C           4.2327   -0.0993    0.6196 C.ar    1  UNL1        0.0627
     24 CL          3.2530    0.3223    2.0153 Cl      1  UNL1       -0.0816
     25 C          -0.1110   -0.6132   -0.1798 C.ar    1  UNL1        0.0031
     26 C          -1.1329    0.2944   -0.0734 C.ar    1  UNL1        0.0649
     27 N          -2.5135    0.2386    0.0020 N.ar    1  UNL1       -0.2454
     28 C          -3.1723   -1.0121   -0.0272 C.2     1  UNL1        0.4209
     29 O          -2.4322   -2.0756   -0.1259 O.2     1  UNL1       -0.2227
     30 O          -4.4859   -1.3222    0.0308 O.3     1  UNL1       -0.4424
     31 C          -4.9796   -2.6407   -0.0114 C.3     1  UNL1        0.1070
     32 C          -6.5107   -2.6023    0.0776 C.3     1  UNL1       -0.0253
     33 C          -4.5066   -3.4692    1.1549 C.3     1  UNL1       -0.0253
     34 C          -4.6325   -3.3143   -1.3343 C.3     1  UNL1       -0.0253
     35 C          -5.6012    1.3441    0.2363 C.ar    1  UNL1        0.0585
     36 N          -6.5686    2.3101    0.3427 N.ar    1  UNL1       -0.1792
     37 H          -6.7019    5.1367    1.5313 H       1  UNL1        0.0473
     38 H          -6.3150    5.5308   -0.1524 H       1  UNL1        0.0473
     39 H          -7.8201    4.5843    0.2439 H       1  UNL1        0.0473
     40 H          -3.9959    4.1148    0.2926 H       1  UNL1        0.0833
     41 H          -1.9946    3.4523    0.1438 H       1  UNL1        0.0645
     42 H           0.7483    3.0396   -0.0340 H       1  UNL1        0.0837
     43 H           2.0087   -2.1907   -0.3844 H       1  UNL1        0.1536
     44 H           3.9414   -1.7020   -2.3341 H       1  UNL1        0.0637
     45 H           6.3463   -1.0247   -2.4226 H       1  UNL1        0.0625
     46 H           7.8301    1.0714   -2.7278 H       1  UNL1        0.0851
     47 H          10.7802    0.7597    0.2919 H       1  UNL1        0.1029
     48 H           7.6425   -0.9144    1.7176 H       1  UNL1        0.0456
     49 H           9.4445   -0.8765    1.8909 H       1  UNL1        0.0456
     50 H           8.4587    0.6205    2.2962 H       1  UNL1        0.0456
     51 H           5.9981    0.8144    1.3664 H       1  UNL1        0.0639
     52 H          -0.3139   -1.6632   -0.2243 H       1  UNL1        0.0673
     53 H          -6.9274   -2.3350   -0.9085 H       1  UNL1        0.0268
     54 H          -6.8671   -3.6147    0.3191 H       1  UNL1        0.0268
     55 H          -6.8277   -1.8646    0.8512 H       1  UNL1        0.0268
     56 H          -3.6226   -4.0789    0.8934 H       1  UNL1        0.0268
     57 H          -5.2925   -4.1812    1.5126 H       1  UNL1        0.0268
     58 H          -4.2141   -2.8429    2.0257 H       1  UNL1        0.0268
     59 H          -5.5191   -3.7102   -1.8322 H       1  UNL1        0.0268
     60 H          -4.1227   -2.5569   -1.9649 H       1  UNL1        0.0268
     61 H          -3.9357   -4.1490   -1.0964 H       1  UNL1        0.0268
     62 H          -5.8715    0.3342    0.1979 H       1  UNL1        0.0854
@<TRIPOS>BOND
     1     1     2    1
     2     2     3   ar
     3     3     4   ar
     4     4     5    1
     5     5     6   ar
     6     6     7   ar
     7     7     8   ar
     8     8     9   ar
     9     9    10   ar
    10    10    11    1
    11    11    12    1
    12    12    13   ar
    13    13    14   ar
    14    14    15   ar
    15    15    16    1
    16    16    17   ar
    17    17    18   ar
    18    18    19   ar
    19    19    20   ar
    20    20    21    1
    21    15    22   ar
    22    22    23   ar
    23    23    24    1
    24    10    25   ar
    25    25    26   ar
    26    26    27   ar
    27    27    28   am
    28    28    29    2
    29    28    30    1
    30    30    31    1
    31    31    32    1
    32    31    33    1
    33    31    34    1
    34     4    35   ar
    35    35    36   ar
    36    36     2   ar
    37    27     5   ar
    38    26     7   ar
    39    23    12   ar
    40    20    16   ar
    41     1    37    1
    42     1    38    1
    43     1    39    1
    44     3    40    1
    45     6    41    1
    46     8    42    1
    47    11    43    1
    48    13    44    1
    49    14    45    1
    50    17    46    1
    51    19    47    1
    52    21    48    1
    53    21    49    1
    54    21    50    1
    55    22    51    1
    56    25    52    1
    57    32    53    1
    58    32    54    1
    59    32    55    1
    60    33    56    1
    61    33    57    1
    62    33    58    1
    63    34    59    1
    64    34    60    1
    65    34    61    1
    66    35    62    1
