
     RDKit          3D

 62 66  0  0  0  0  0  0  0  0999 V2000
   -6.7450    4.7282    0.4815 C   0  0  0  0  0  0  0  0  0  0  0  0
   -6.0218    3.4873    0.3743 N   0  0  0  0  0  0  0  0  0  0  0  0
   -4.7067    3.3152    0.2904 C   0  0  0  0  0  0  0  0  0  0  0  0
   -4.3898    1.9428    0.1994 C   0  0  0  0  0  0  0  0  0  0  0  0
   -3.0262    1.4585    0.0961 C   0  0  0  0  0  0  0  0  0  0  0  0
   -1.9366    2.3578    0.0822 C   0  0  0  0  0  0  0  0  0  0  0  0
   -0.8026    1.6151   -0.0218 C   0  0  0  0  0  0  0  0  0  0  0  0
    0.5509    1.9662   -0.0800 C   0  0  0  0  0  0  0  0  0  0  0  0
    1.5290    1.0592   -0.1839 N   0  0  0  0  0  0  0  0  0  0  0  0
    1.2206   -0.2457   -0.2359 C   0  0  0  0  0  0  0  0  0  0  0  0
    2.2765   -1.1823   -0.3458 N   0  0  0  0  0  0  0  0  0  0  0  0
    3.6259   -0.8058   -0.4023 C   0  0  0  0  0  0  0  0  0  0  0  0
    4.3803   -1.1460   -1.5074 C   0  0  0  0  0  0  0  0  0  0  0  0
    5.7120   -0.7750   -1.5641 C   0  0  0  0  0  0  0  0  0  0  0  0
    6.3305   -0.0706   -0.5533 C   0  0  0  0  0  0  0  0  0  0  0  0
    7.7485    0.3157   -0.6311 C   0  0  0  0  0  0  0  0  0  0  0  0
    8.3154    0.8565   -1.7643 C   0  0  0  0  0  0  0  0  0  0  0  0
    9.6074    1.0869   -1.4884 N   0  0  0  0  0  0  0  0  0  0  0  0
    9.8361    0.7021   -0.2256 C   0  0  0  0  0  0  0  0  0  0  0  0
    8.6967    0.2338    0.2874 N   0  0  0  0  0  0  0  0  0  0  0  0
    8.5334   -0.2791    1.6323 C   0  0  0  0  0  0  0  0  0  0  0  0
    5.5697    0.2651    0.5467 C   0  0  0  0  0  0  0  0  0  0  0  0
    4.2327   -0.0993    0.6196 C   0  0  0  0  0  0  0  0  0  0  0  0
    3.2530    0.3223    2.0153 Cl  0  0  0  0  0  0  0  0  0  0  0  0
   -0.1110   -0.6132   -0.1798 C   0  0  0  0  0  0  0  0  0  0  0  0
   -1.1329    0.2944   -0.0734 C   0  0  0  0  0  0  0  0  0  0  0  0
   -2.5135    0.2386    0.0020 N   0  0  0  0  0  0  0  0  0  0  0  0
   -3.1723   -1.0121   -0.0272 C   0  0  0  0  0  0  0  0  0  0  0  0
   -2.4322   -2.0756   -0.1259 O   0  0  0  0  0  0  0  0  0  0  0  0
   -4.4859   -1.3222    0.0308 O   0  0  0  0  0  0  0  0  0  0  0  0
   -4.9796   -2.6407   -0.0114 C   0  0  0  0  0  0  0  0  0  0  0  0
   -6.5107   -2.6023    0.0776 C   0  0  0  0  0  0  0  0  0  0  0  0
   -4.5066   -3.4692    1.1549 C   0  0  0  0  0  0  0  0  0  0  0  0
   -4.6325   -3.3143   -1.3343 C   0  0  0  0  0  0  0  0  0  0  0  0
   -5.6012    1.3441    0.2363 C   0  0  0  0  0  0  0  0  0  0  0  0
   -6.5686    2.3101    0.3427 N   0  0  0  0  0  0  0  0  0  0  0  0
   -6.7019    5.1367    1.5313 H   0  0  0  0  0  0  0  0  0  0  0  0
   -6.3150    5.5308   -0.1524 H   0  0  0  0  0  0  0  0  0  0  0  0
   -7.8201    4.5843    0.2439 H   0  0  0  0  0  0  0  0  0  0  0  0
   -3.9959    4.1148    0.2926 H   0  0  0  0  0  0  0  0  0  0  0  0
   -1.9946    3.4523    0.1438 H   0  0  0  0  0  0  0  0  0  0  0  0
    0.7483    3.0396   -0.0340 H   0  0  0  0  0  0  0  0  0  0  0  0
    2.0087   -2.1907   -0.3844 H   0  0  0  0  0  0  0  0  0  0  0  0
    3.9414   -1.7020   -2.3341 H   0  0  0  0  0  0  0  0  0  0  0  0
    6.3463   -1.0247   -2.4226 H   0  0  0  0  0  0  0  0  0  0  0  0
    7.8301    1.0714   -2.7278 H   0  0  0  0  0  0  0  0  0  0  0  0
   10.7802    0.7597    0.2919 H   0  0  0  0  0  0  0  0  0  0  0  0
    7.6425   -0.9144    1.7176 H   0  0  0  0  0  0  0  0  0  0  0  0
    9.4445   -0.8765    1.8909 H   0  0  0  0  0  0  0  0  0  0  0  0
    8.4587    0.6205    2.2962 H   0  0  0  0  0  0  0  0  0  0  0  0
    5.9981    0.8144    1.3664 H   0  0  0  0  0  0  0  0  0  0  0  0
   -0.3139   -1.6632   -0.2243 H   0  0  0  0  0  0  0  0  0  0  0  0
   -6.9274   -2.3350   -0.9085 H   0  0  0  0  0  0  0  0  0  0  0  0
   -6.8671   -3.6147    0.3191 H   0  0  0  0  0  0  0  0  0  0  0  0
   -6.8277   -1.8646    0.8512 H   0  0  0  0  0  0  0  0  0  0  0  0
   -3.6226   -4.0789    0.8934 H   0  0  0  0  0  0  0  0  0  0  0  0
   -5.2925   -4.1812    1.5126 H   0  0  0  0  0  0  0  0  0  0  0  0
   -4.2141   -2.8429    2.0257 H   0  0  0  0  0  0  0  0  0  0  0  0
   -5.5191   -3.7102   -1.8322 H   0  0  0  0  0  0  0  0  0  0  0  0
   -4.1227   -2.5569   -1.9649 H   0  0  0  0  0  0  0  0  0  0  0  0
   -3.9357   -4.1490   -1.0964 H   0  0  0  0  0  0  0  0  0  0  0  0
   -5.8715    0.3342    0.1979 H   0  0  0  0  0  0  0  0  0  0  0  0
  1  2  1  0
  2  3  1  0
  3  4  2  0
  4  5  1  0
  5  6  2  0
  6  7  1  0
  7  8  2  0
  8  9  1  0
  9 10  2  0
 10 11  1  0
 11 12  1  0
 12 13  2  0
 13 14  1  0
 14 15  2  0
 15 16  1  0
 16 17  2  0
 17 18  1  0
 18 19  2  0
 19 20  1  0
 20 21  1  0
 15 22  1  0
 22 23  2  0
 23 24  1  0
 10 25  1  0
 25 26  2  0
 26 27  1  0
 27 28  1  0
 28 29  2  0
 28 30  1  0
 30 31  1  0
 31 32  1  0
 31 33  1  0
 31 34  1  0
  4 35  1  0
 35 36  2  0
 36  2  1  0
 27  5  1  0
 26  7  1  0
 23 12  1  0
 20 16  1  0
  1 37  1  0
  1 38  1  0
  1 39  1  0
  3 40  1  0
  6 41  1  0
  8 42  1  0
 11 43  1  0
 13 44  1  0
 14 45  1  0
 17 46  1  0
 19 47  1  0
 21 48  1  0
 21 49  1  0
 21 50  1  0
 22 51  1  0
 25 52  1  0
 32 53  1  0
 32 54  1  0
 32 55  1  0
 33 56  1  0
 33 57  1  0
 33 58  1  0
 34 59  1  0
 34 60  1  0
 34 61  1  0
 35 62  1  0
M  END
$$$$
