@<TRIPOS>MOLECULE
*****
 41 42 0 0 0
SMALL
GASTEIGER

@<TRIPOS>ATOM
      1 C          -4.5117    2.6002   -0.3413 C.3     1  UNL1        0.0790
      2 O          -4.1369    1.2558   -0.0623 O.3     1  UNL1       -0.4913
      3 C          -2.8421    1.0051    0.2957 C.ar    1  UNL1        0.1652
      4 C          -2.4674   -0.2945    0.5675 C.ar    1  UNL1        0.2038
      5 O          -3.4130   -1.3125    0.4715 O.3     1  UNL1       -0.4885
      6 C          -3.6650   -2.0134   -0.7215 C.3     1  UNL1        0.0791
      7 C          -1.1374   -0.5359    0.9327 C.ar    1  UNL1        0.1695
      8 O          -0.7244   -1.8286    1.2130 O.3     1  UNL1       -0.4910
      9 C          -0.2065   -2.7452    0.3011 C.3     1  UNL1        0.0790
     10 C          -0.2348    0.5155    1.0140 C.ar    1  UNL1        0.0121
     11 C           1.1640    0.2000    1.4081 C.3     1  UNL1        0.0277
     12 N           1.9570   -0.3902    0.3853 N.3     1  UNL1       -0.2956
     13 C           3.3003   -0.6929    0.7793 C.3     1  UNL1        0.0118
     14 C           4.1215   -0.9659   -0.4626 C.3     1  UNL1        0.0087
     15 N           4.3572    0.2665   -1.2116 N.3     1  UNL1       -0.3136
     16 C           3.1740    1.1088   -1.1295 C.3     1  UNL1        0.0087
     17 C           1.9410    0.2774   -0.8688 C.3     1  UNL1        0.0118
     18 C          -0.6468    1.7900    0.7363 C.ar    1  UNL1       -0.0502
     19 C          -1.9599    2.0762    0.3691 C.ar    1  UNL1       -0.0158
     20 H          -4.2235    3.1817    0.5719 H       1  UNL1        0.0660
     21 H          -3.8559    2.9585   -1.1563 H       1  UNL1        0.0660
     22 H          -5.5935    2.6962   -0.5578 H       1  UNL1        0.0660
     23 H          -4.6856   -2.4421   -0.7487 H       1  UNL1        0.0660
     24 H          -3.5504   -1.2835   -1.5716 H       1  UNL1        0.0660
     25 H          -2.8644   -2.7717   -0.8380 H       1  UNL1        0.0660
     26 H           0.8737   -2.9684    0.4540 H       1  UNL1        0.0660
     27 H          -0.8248   -3.6814    0.3985 H       1  UNL1        0.0660
     28 H          -0.2931   -2.4234   -0.7608 H       1  UNL1        0.0660
     29 H           1.1782   -0.5295    2.2710 H       1  UNL1        0.0477
     30 H           1.7089    1.1013    1.8011 H       1  UNL1        0.0477
     31 H           3.3607   -1.6234    1.4078 H       1  UNL1        0.0439
     32 H           3.7762    0.0891    1.3990 H       1  UNL1        0.0439
     33 H           3.5080   -1.6258   -1.1099 H       1  UNL1        0.0437
     34 H           5.0821   -1.4726   -0.2158 H       1  UNL1        0.0437
     35 H           5.1609    0.7955   -0.7864 H       1  UNL1        0.1220
     36 H           3.3054    1.9132   -0.3734 H       1  UNL1        0.0437
     37 H           3.0663    1.6094   -2.1119 H       1  UNL1        0.0437
     38 H           1.9069   -0.4968   -1.6754 H       1  UNL1        0.0439
     39 H           1.0666    0.9357   -1.0304 H       1  UNL1        0.0439
     40 H           0.0561    2.6190    0.7971 H       1  UNL1        0.0623
     41 H          -2.2277    3.1027    0.1600 H       1  UNL1        0.0655
@<TRIPOS>BOND
     1     1     2    1
     2     2     3    1
     3     3     4   ar
     4     4     5    1
     5     5     6    1
     6     4     7   ar
     7     7     8    1
     8     8     9    1
     9     7    10   ar
    10    10    11    1
    11    11    12    1
    12    12    13    1
    13    13    14    1
    14    14    15    1
    15    15    16    1
    16    16    17    1
    17    10    18   ar
    18    18    19   ar
    19    19     3   ar
    20    17    12    1
    21     1    20    1
    22     1    21    1
    23     1    22    1
    24     6    23    1
    25     6    24    1
    26     6    25    1
    27     9    26    1
    28     9    27    1
    29     9    28    1
    30    11    29    1
    31    11    30    1
    32    13    31    1
    33    13    32    1
    34    14    33    1
    35    14    34    1
    36    15    35    1
    37    16    36    1
    38    16    37    1
    39    17    38    1
    40    17    39    1
    41    18    40    1
    42    19    41    1
