@<TRIPOS>MOLECULE
*****
 83 84 0 0 0
SMALL
GASTEIGER

@<TRIPOS>ATOM
      1 C          -6.0251   -0.9697    1.5720 C.3     1  UNL1       -0.0590
      2 C          -5.5311   -2.1925    0.8658 C.3     1  UNL1       -0.0249
      3 C          -6.1700   -3.4420    1.3987 C.3     1  UNL1       -0.0590
      4 C          -5.6842   -2.0792   -0.6590 C.3     1  UNL1       -0.0336
      5 C          -4.9643   -3.3018   -1.1161 C.3     1  UNL1       -0.0491
      6 C          -3.8099   -3.4122   -0.1204 C.3     1  UNL1       -0.0452
      7 C          -4.0146   -2.2638    0.8606 C.3     1  UNL1       -0.0083
      8 C          -3.3590   -2.4288    2.1522 C.3     1  UNL1       -0.0574
      9 C          -3.7266   -0.9213    0.1797 C.3     1  UNL1        0.0293
     10 N          -2.3660   -0.8371   -0.2325 N.am    1  UNL1       -0.3106
     11 C          -1.4455    0.1322    0.2224 C.2     1  UNL1        0.2319
     12 O          -1.8515    0.9785    1.0469 O.2     1  UNL1       -0.2740
     13 C          -0.0178    0.2247   -0.2078 C.3     1  UNL1        0.1060
     14 C           0.3263    1.5678   -0.7678 C.3     1  UNL1       -0.0246
     15 C           0.1553    2.7277    0.1495 C.3     1  UNL1       -0.0391
     16 C           0.5671    4.0166   -0.5964 C.3     1  UNL1       -0.0501
     17 C           0.6019    5.1455    0.3877 C.3     1  UNL1       -0.0528
     18 C          -0.2005    4.8513    1.6156 C.3     1  UNL1       -0.0530
     19 C           0.2898    3.6665    2.3966 C.3     1  UNL1       -0.0528
     20 C           0.9047    2.6319    1.4533 C.3     1  UNL1       -0.0501
     21 N           0.3147   -0.8527   -1.1181 N.3     1  UNL1       -0.1680
     22 S           1.3359   -2.0435   -0.4343 S.O2    1  UNL1        0.0959
     23 O           1.3981   -3.2515   -1.3384 O.2     1  UNL1       -0.1413
     24 O           0.6127   -2.5517    0.8159 O.2     1  UNL1       -0.1413
     25 N           2.8625   -1.5320    0.0777 N.3     1  UNL1       -0.1661
     26 C           3.6966   -0.9858   -1.0516 C.3     1  UNL1        0.1263
     27 C           4.1266    0.3614   -0.6306 C.3     1  UNL1       -0.0255
     28 C           4.8918    1.2998   -1.4350 C.3     1  UNL1       -0.0499
     29 C           6.2606    0.9430   -1.8718 C.3     1  UNL1       -0.0406
     30 C           7.1998    0.6062   -0.7355 C.3     1  UNL1       -0.0069
     31 N           8.5014    0.2661   -1.2712 N.3     1  UNL1       -0.3300
     32 C           4.8120   -1.9403   -1.2122 C.2     1  UNL1        0.3236
     33 O           5.0293   -2.8202   -0.2964 O.2     1  UNL1       -0.2492
     34 O           5.6420   -1.9688   -2.2795 O.3     1  UNL1       -0.4795
     35 C          -4.7377   -0.8991   -0.9218 C.3     1  UNL1       -0.0306
     36 CL          0.6838    0.0000    0.0000 Cl      2  UNL2       -0.1454
     37 H          -5.3359   -0.7444    2.4360 H       1  UNL1        0.0235
     38 H          -7.0103   -1.1781    2.0314 H       1  UNL1        0.0235
     39 H          -6.0590   -0.0733    0.9188 H       1  UNL1        0.0235
     40 H          -7.2391   -3.3523    1.5788 H       1  UNL1        0.0235
     41 H          -5.7073   -3.6474    2.4021 H       1  UNL1        0.0235
     42 H          -5.9893   -4.3261    0.7920 H       1  UNL1        0.0235
     43 H          -6.6861   -1.9274   -0.9906 H       1  UNL1        0.0307
     44 H          -5.5529   -4.2074   -1.1944 H       1  UNL1        0.0268
     45 H          -4.4840   -3.0544   -2.1023 H       1  UNL1        0.0268
     46 H          -3.9797   -4.3401    0.4610 H       1  UNL1        0.0271
     47 H          -2.8289   -3.3805   -0.6045 H       1  UNL1        0.0271
     48 H          -3.0616   -1.4160    2.5528 H       1  UNL1        0.0236
     49 H          -2.3670   -2.9444    1.9866 H       1  UNL1        0.0236
     50 H          -3.8887   -2.9286    2.9569 H       1  UNL1        0.0236
     51 H          -4.0086   -0.1399    0.9151 H       1  UNL1        0.0504
     52 H          -2.0157   -1.5393   -0.9210 H       1  UNL1        0.1490
     53 H           0.5608    0.0430    0.7122 H       1  UNL1        0.0573
     54 H           1.3027    1.6152   -1.2682 H       1  UNL1        0.0288
     55 H          -0.4242    1.7193   -1.6202 H       1  UNL1        0.0288
     56 H          -0.9191    2.9457    0.4234 H       1  UNL1        0.0301
     57 H           1.5263    3.8828   -1.0923 H       1  UNL1        0.0268
     58 H          -0.1986    4.2306   -1.3836 H       1  UNL1        0.0268
     59 H           1.6446    5.3628    0.6993 H       1  UNL1        0.0265
     60 H           0.1582    6.0535   -0.0813 H       1  UNL1        0.0265
     61 H          -1.2747    4.7506    1.3150 H       1  UNL1        0.0265
     62 H          -0.1429    5.7464    2.2841 H       1  UNL1        0.0265
     63 H           1.0040    3.9414    3.2008 H       1  UNL1        0.0265
     64 H          -0.6083    3.1862    2.8363 H       1  UNL1        0.0265
     65 H           1.9934    2.8133    1.3276 H       1  UNL1        0.0268
     66 H           0.6929    1.6402    1.8949 H       1  UNL1        0.0268
     67 H           0.8549   -0.4227   -1.9286 H       1  UNL1        0.1499
     68 H           2.8296   -0.7929    0.7923 H       1  UNL1        0.1500
     69 H           3.0405   -0.9891   -1.9213 H       1  UNL1        0.0593
     70 H           4.7583    0.2442    0.3612 H       1  UNL1        0.0286
     71 H           3.2200    0.9080   -0.1692 H       1  UNL1        0.0286
     72 H           4.9533    2.2785   -0.8483 H       1  UNL1        0.0266
     73 H           4.2478    1.5756   -2.3492 H       1  UNL1        0.0266
     74 H           6.6647    1.9805   -2.2887 H       1  UNL1        0.0277
     75 H           6.2956    0.3052   -2.7440 H       1  UNL1        0.0277
     76 H           6.7692   -0.1851   -0.1088 H       1  UNL1        0.0422
     77 H           7.3079    1.5163   -0.0914 H       1  UNL1        0.0422
     78 H           8.3500   -0.1068   -2.2395 H       1  UNL1        0.1182
     79 H           8.9764   -0.4072   -0.6394 H       1  UNL1        0.1182
     80 H           6.5788   -2.2980   -2.2701 H       1  UNL1        0.2951
     81 H          -4.2887   -1.1188   -1.9250 H       1  UNL1        0.0286
     82 H          -5.2844    0.0554   -0.9948 H       1  UNL1        0.0286
     83 H          -0.6838    0.0000    0.0000 H       1  UNL1        0.1454
@<TRIPOS>BOND
     1     1     2    1
     2     2     3    1
     3     2     4    1
     4     4     5    1
     5     5     6    1
     6     6     7    1
     7     7     8    1
     8     7     9    1
     9     9    10    1
    10    10    11   am
    11    11    12    2
    12    11    13    1
    13    13    14    1
    14    14    15    1
    15    15    16    1
    16    16    17    1
    17    17    18    1
    18    18    19    1
    19    19    20    1
    20    13    21    1
    21    21    22    1
    22    22    23    2
    23    22    24    2
    24    22    25    1
    25    25    26    1
    26    26    27    1
    27    27    28    1
    28    28    29    1
    29    29    30    1
    30    30    31    1
    31    26    32    1
    32    32    33    2
    33    32    34    1
    34     9    35    1
    35     7     2    1
    36    20    15    1
    37    35     4    1
    38     1    37    1
    39     1    38    1
    40     1    39    1
    41     3    40    1
    42     3    41    1
    43     3    42    1
    44     4    43    1
    45     5    44    1
    46     5    45    1
    47     6    46    1
    48     6    47    1
    49     8    48    1
    50     8    49    1
    51     8    50    1
    52     9    51    1
    53    10    52    1
    54    13    53    1
    55    14    54    1
    56    14    55    1
    57    15    56    1
    58    16    57    1
    59    16    58    1
    60    17    59    1
    61    17    60    1
    62    18    61    1
    63    18    62    1
    64    19    63    1
    65    19    64    1
    66    20    65    1
    67    20    66    1
    68    21    67    1
    69    25    68    1
    70    26    69    1
    71    27    70    1
    72    27    71    1
    73    28    72    1
    74    28    73    1
    75    29    74    1
    76    29    75    1
    77    30    76    1
    78    30    77    1
    79    31    78    1
    80    31    79    1
    81    34    80    1
    82    35    81    1
    83    35    82    1
    84    36    83    1
