@<TRIPOS>MOLECULE
*****
 39 42 0 0 0
SMALL
GASTEIGER

@<TRIPOS>ATOM
      1 N          -5.1587   -1.6884    1.4132 N.1     1  UNL1       -0.1892
      2 C          -4.6399   -0.7487    0.9403 C.1     1  UNL1        0.1208
      3 C          -4.0112    0.4039    0.3653 C.ar    1  UNL1        0.1618
      4 C          -4.6629    1.5971    0.1846 C.ar    1  UNL1        0.0659
      5 N          -3.7435    2.4308   -0.3813 N.ar    1  UNL1       -0.2333
      6 C          -2.5838    1.7438   -0.5281 C.ar    1  UNL1        0.1555
      7 C          -1.3840    2.1751   -1.0532 C.ar    1  UNL1       -0.0153
      8 C          -0.3471    1.2659   -1.0889 C.ar    1  UNL1       -0.0290
      9 C          -0.5107   -0.0380   -0.6112 C.ar    1  UNL1        0.1103
     10 C           0.6041   -0.9685   -0.6648 C.ar    1  UNL1        0.0968
     11 C           1.8151   -0.7771   -0.0037 C.ar    1  UNL1        0.0983
     12 C           2.2408    0.3354    0.8374 C.ar    1  UNL1        0.0059
     13 C           1.5920    0.6755    2.0240 C.ar    1  UNL1       -0.0523
     14 C           2.0212    1.7373    2.7938 C.ar    1  UNL1       -0.0577
     15 C           3.1087    2.5011    2.4167 C.ar    1  UNL1       -0.0201
     16 C           3.7763    2.1886    1.2413 C.ar    1  UNL1        0.1175
     17 O           4.8815    2.9515    0.8421 O.3     1  UNL1       -0.5067
     18 C           3.3239    1.1296    0.5028 C.ar    1  UNL1       -0.0109
     19 N           2.5533   -1.8522   -0.3085 N.ar    1  UNL1       -0.2351
     20 C           1.8526   -2.6807   -1.1177 C.ar    1  UNL1        0.0973
     21 N           0.6370   -2.1245   -1.3371 N.ar    1  UNL1       -0.3229
     22 C          -0.3695   -2.7464   -2.1640 C.3     1  UNL1        0.0852
     23 C          -1.2855   -3.6720   -1.3952 C.3     1  UNL1        0.2569
     24 F          -2.2135   -4.2277   -2.2380 F       1  UNL1       -0.2073
     25 F          -0.5989   -4.6884   -0.7596 F       1  UNL1       -0.2073
     26 N          -1.7163   -0.3614   -0.1194 N.ar    1  UNL1       -0.1623
     27 N          -2.7296    0.4867   -0.0714 N.ar    1  UNL1       -0.2023
     28 H          -5.6697    1.9043    0.4066 H       1  UNL1        0.0859
     29 H          -1.2661    3.1904   -1.4225 H       1  UNL1        0.0655
     30 H           0.6001    1.5590   -1.4880 H       1  UNL1        0.0641
     31 H           0.7334    0.0922    2.3459 H       1  UNL1        0.0624
     32 H           1.5246    2.0163    3.7229 H       1  UNL1        0.0619
     33 H           3.4616    3.3467    3.0157 H       1  UNL1        0.0654
     34 H           4.9800    3.9113    1.1425 H       1  UNL1        0.2921
     35 H           3.8416    0.8711   -0.4279 H       1  UNL1        0.0661
     36 H           2.1953   -3.6233   -1.5225 H       1  UNL1        0.1029
     37 H          -1.0366   -1.9342   -2.5687 H       1  UNL1        0.0548
     38 H           0.0420   -3.2807   -3.0334 H       1  UNL1        0.0548
     39 H          -1.8577   -3.1015   -0.6221 H       1  UNL1        0.1037
@<TRIPOS>BOND
     1     1     2    3
     2     2     3    1
     3     3     4   ar
     4     4     5   ar
     5     5     6   ar
     6     6     7   ar
     7     7     8   ar
     8     8     9   ar
     9     9    10    1
    10    10    11   ar
    11    11    12    1
    12    12    13   ar
    13    13    14   ar
    14    14    15   ar
    15    15    16   ar
    16    16    17    1
    17    16    18   ar
    18    11    19   ar
    19    19    20   ar
    20    20    21   ar
    21    21    22    1
    22    22    23    1
    23    23    24    1
    24    23    25    1
    25     9    26   ar
    26    26    27   ar
    27    27     3   ar
    28    27     6   ar
    29    21    10   ar
    30    18    12   ar
    31     4    28    1
    32     7    29    1
    33     8    30    1
    34    13    31    1
    35    14    32    1
    36    15    33    1
    37    17    34    1
    38    18    35    1
    39    20    36    1
    40    22    37    1
    41    22    38    1
    42    23    39    1
