
     RDKit          3D

 65 69  0  0  0  0  0  0  0  0999 V2000
   -5.2594    0.9706    2.3237 C   0  0  0  0  0  0  0  0  0  0  0  0
   -4.8760    1.3323    1.0579 O   0  0  0  0  0  0  0  0  0  0  0  0
   -3.6090    1.8420    0.9475 C   0  0  2  0  0  0  0  0  0  0  0  0
   -3.5671    3.2016    0.2867 C   0  0  0  0  0  0  0  0  0  0  0  0
   -4.1716    3.1937   -0.9591 O   0  0  0  0  0  0  0  0  0  0  0  0
   -3.6738    2.2667   -1.8371 C   0  0  0  0  0  0  0  0  0  0  0  0
   -3.6674    0.8451   -1.2541 C   0  0  0  0  0  0  0  0  0  0  0  0
   -2.8473    0.9078   -0.0083 C   0  0  2  0  0  0  0  0  0  0  0  0
   -2.6428   -0.3032    0.6720 N   0  0  0  0  0  0  0  0  0  0  0  0
   -1.9692   -1.3434    0.0051 C   0  0  2  0  0  0  0  0  0  0  0  0
   -1.8542   -2.5328    0.9364 C   0  0  0  0  0  0  0  0  0  0  0  0
   -0.6595   -3.2912    0.4674 C   0  0  1  0  0  0  0  0  0  0  0  0
   -1.0003   -4.0259   -0.7915 C   0  0  0  0  0  0  0  0  0  0  0  0
    0.2645   -3.9325   -1.6199 C   0  0  0  0  0  0  0  0  0  0  0  0
    1.0363   -2.7629   -1.0880 C   0  0  0  0  0  0  0  0  0  0  0  0
    0.3248   -2.1954    0.0932 C   0  0  2  0  0  0  0  0  0  0  0  0
    1.2558   -1.9020    1.1728 C   0  0  0  0  0  0  0  0  0  0  0  0
    1.0564   -2.4798    2.2921 O   0  0  0  0  0  0  0  0  0  0  0  0
    2.3455   -1.0364    1.0623 N   0  0  0  0  0  0  0  0  0  0  0  0
    3.2333   -0.7765    2.2069 C   0  0  0  0  0  0  0  0  0  0  0  0
    4.6470   -0.6995    1.6247 C   0  0  0  0  0  0  0  0  0  0  0  0
    4.6587    0.6268    0.8976 C   0  0  0  0  0  0  0  0  0  0  0  0
    5.5789    1.5556    1.1320 N   0  0  0  0  0  0  0  0  0  0  0  0
    5.4908    2.7199    0.4320 C   0  0  0  0  0  0  0  0  0  0  0  0
    4.4857    2.9214   -0.4816 C   0  0  0  0  0  0  0  0  0  0  0  0
    4.4408    4.2186   -1.2187 C   0  0  0  0  0  0  0  0  0  0  0  0
    5.2232    5.1468   -0.5693 F   0  0  0  0  0  0  0  0  0  0  0  0
    4.9626    4.0232   -2.4764 F   0  0  0  0  0  0  0  0  0  0  0  0
    3.1401    4.6573   -1.3639 F   0  0  0  0  0  0  0  0  0  0  0  0
    3.5397    1.9444   -0.7111 C   0  0  0  0  0  0  0  0  0  0  0  0
    3.6178    0.7637   -0.0106 C   0  0  0  0  0  0  0  0  0  0  0  0
    2.6715   -0.3665   -0.1753 C   0  0  0  0  0  0  0  0  0  0  0  0
   -0.5039   -0.9791   -0.2400 C   0  0  0  0  0  0  0  0  0  0  0  0
   -4.6208    0.1900    2.7787 H   0  0  0  0  0  0  0  0  0  0  0  0
   -6.2806    0.5014    2.2239 H   0  0  0  0  0  0  0  0  0  0  0  0
   -5.4164    1.8324    3.0147 H   0  0  0  0  0  0  0  0  0  0  0  0
   -3.0715    1.8908    1.8952 H   0  0  0  0  0  0  0  0  0  0  0  0
   -2.4935    3.4924    0.2380 H   0  0  0  0  0  0  0  0  0  0  0  0
   -4.0657    3.9672    0.9019 H   0  0  0  0  0  0  0  0  0  0  0  0
   -4.2420    2.3142   -2.7649 H   0  0  0  0  0  0  0  0  0  0  0  0
   -2.5843    2.5062   -1.9868 H   0  0  0  0  0  0  0  0  0  0  0  0
   -4.7143    0.5977   -1.0099 H   0  0  0  0  0  0  0  0  0  0  0  0
   -3.2417    0.2089   -2.0479 H   0  0  0  0  0  0  0  0  0  0  0  0
   -1.9034    1.4735   -0.2616 H   0  0  0  0  0  0  0  0  0  0  0  0
   -2.5094   -0.2807    1.6829 H   0  0  0  0  0  0  0  0  0  0  0  0
   -2.3798   -1.6252   -0.9804 H   0  0  0  0  0  0  0  0  0  0  0  0
   -2.7748   -3.1274    0.8871 H   0  0  0  0  0  0  0  0  0  0  0  0
   -1.7373   -2.1418    1.9799 H   0  0  0  0  0  0  0  0  0  0  0  0
   -0.2570   -3.9453    1.2586 H   0  0  0  0  0  0  0  0  0  0  0  0
   -1.8234   -3.5483   -1.3602 H   0  0  0  0  0  0  0  0  0  0  0  0
   -1.2935   -5.0805   -0.5996 H   0  0  0  0  0  0  0  0  0  0  0  0
    0.0342   -3.8245   -2.6930 H   0  0  0  0  0  0  0  0  0  0  0  0
    0.7945   -4.8994   -1.5041 H   0  0  0  0  0  0  0  0  0  0  0  0
    2.0250   -3.1661   -0.7331 H   0  0  0  0  0  0  0  0  0  0  0  0
    1.2616   -2.0075   -1.8709 H   0  0  0  0  0  0  0  0  0  0  0  0
    2.9746    0.2369    2.5767 H   0  0  0  0  0  0  0  0  0  0  0  0
    3.1398   -1.5408    2.9814 H   0  0  0  0  0  0  0  0  0  0  0  0
    4.7147   -1.4785    0.8367 H   0  0  0  0  0  0  0  0  0  0  0  0
    5.4244   -0.7590    2.3845 H   0  0  0  0  0  0  0  0  0  0  0  0
    6.2271    3.4917    0.6045 H   0  0  0  0  0  0  0  0  0  0  0  0
    2.7444    2.0818   -1.4215 H   0  0  0  0  0  0  0  0  0  0  0  0
    1.8025    0.0211   -0.7271 H   0  0  0  0  0  0  0  0  0  0  0  0
    3.2222   -1.0898   -0.8570 H   0  0  0  0  0  0  0  0  0  0  0  0
   -0.3592   -0.6967   -1.3010 H   0  0  0  0  0  0  0  0  0  0  0  0
   -0.2684   -0.1049    0.3949 H   0  0  0  0  0  0  0  0  0  0  0  0
  1  2  1  0
  2  3  1  0
  3  4  1  0
  4  5  1  0
  5  6  1  0
  6  7  1  0
  7  8  1  0
  8  9  1  0
  9 10  1  0
 10 11  1  0
 11 12  1  0
 12 13  1  0
 13 14  1  0
 14 15  1  0
 15 16  1  0
 16 17  1  1
 17 18  2  0
 17 19  1  0
 19 20  1  0
 20 21  1  0
 21 22  1  0
 22 23  2  0
 23 24  1  0
 24 25  2  0
 25 26  1  0
 26 27  1  0
 26 28  1  0
 26 29  1  0
 25 30  1  0
 30 31  2  0
 31 32  1  0
 16 33  1  0
  8  3  1  0
 33 10  1  0
 16 12  1  0
 32 19  1  0
 31 22  1  0
  1 34  1  0
  1 35  1  0
  1 36  1  0
  3 37  1  1
  4 38  1  0
  4 39  1  0
  6 40  1  0
  6 41  1  0
  7 42  1  0
  7 43  1  0
  8 44  1  6
  9 45  1  0
 10 46  1  6
 11 47  1  0
 11 48  1  0
 12 49  1  1
 13 50  1  0
 13 51  1  0
 14 52  1  0
 14 53  1  0
 15 54  1  0
 15 55  1  0
 20 56  1  0
 20 57  1  0
 21 58  1  0
 21 59  1  0
 24 60  1  0
 30 61  1  0
 32 62  1  0
 32 63  1  0
 33 64  1  0
 33 65  1  0
M  END
$$$$
