@<TRIPOS>MOLECULE
*****
 65 69 0 0 0
SMALL
GASTEIGER

@<TRIPOS>ATOM
      1 C          -5.2594    0.9706    2.3237 C.3     1  UNL1        0.0370
      2 O          -4.8760    1.3323    1.0579 O.3     1  UNL1       -0.3760
      3 C          -3.6090    1.8420    0.9475 C.3     1  UNL1        0.0969
      4 C          -3.5671    3.2016    0.2867 C.3     1  UNL1        0.0753
      5 O          -4.1716    3.1937   -0.9591 O.3     1  UNL1       -0.3771
      6 C          -3.6738    2.2667   -1.8371 C.3     1  UNL1        0.0493
      7 C          -3.6674    0.8451   -1.2541 C.3     1  UNL1       -0.0115
      8 C          -2.8473    0.9078   -0.0083 C.3     1  UNL1        0.0383
      9 N          -2.6428   -0.3032    0.6720 N.3     1  UNL1       -0.3079
     10 C          -1.9692   -1.3434    0.0051 C.3     1  UNL1        0.0092
     11 C          -1.8542   -2.5328    0.9364 C.3     1  UNL1       -0.0337
     12 C          -0.6595   -3.2912    0.4674 C.3     1  UNL1       -0.0256
     13 C          -1.0003   -4.0259   -0.7915 C.3     1  UNL1       -0.0492
     14 C           0.2645   -3.9325   -1.6199 C.3     1  UNL1       -0.0518
     15 C           1.0363   -2.7629   -1.0880 C.3     1  UNL1       -0.0387
     16 C           0.3248   -2.1954    0.0932 C.3     1  UNL1        0.0514
     17 C           1.2558   -1.9020    1.1728 C.2     1  UNL1        0.2223
     18 O           1.0564   -2.4798    2.2921 O.2     1  UNL1       -0.2750
     19 N           2.3455   -1.0364    1.0623 N.am    1  UNL1       -0.2963
     20 C           3.2333   -0.7765    2.2069 C.3     1  UNL1        0.0204
     21 C           4.6470   -0.6995    1.6247 C.3     1  UNL1        0.0058
     22 C           4.6587    0.6268    0.8976 C.ar    1  UNL1        0.0474
     23 N           5.5789    1.5556    1.1320 N.ar    1  UNL1       -0.2590
     24 C           5.4908    2.7199    0.4320 C.ar    1  UNL1        0.0395
     25 C           4.4857    2.9214   -0.4816 C.ar    1  UNL1        0.0732
     26 C           4.4408    4.2186   -1.2187 C.3     1  UNL1        0.4188
     27 F           5.2232    5.1468   -0.5693 F       1  UNL1       -0.1658
     28 F           4.9626    4.0232   -2.4764 F       1  UNL1       -0.1658
     29 F           3.1401    4.6573   -1.3639 F       1  UNL1       -0.1658
     30 C           3.5397    1.9444   -0.7111 C.ar    1  UNL1       -0.0423
     31 C           3.6178    0.7637   -0.0106 C.ar    1  UNL1       -0.0083
     32 C           2.6715   -0.3665   -0.1753 C.3     1  UNL1        0.0414
     33 C          -0.5039   -0.9791   -0.2400 C.3     1  UNL1       -0.0233
     34 H          -4.6208    0.1900    2.7787 H       1  UNL1        0.0524
     35 H          -6.2806    0.5014    2.2239 H       1  UNL1        0.0524
     36 H          -5.4164    1.8324    3.0147 H       1  UNL1        0.0524
     37 H          -3.0715    1.8908    1.8952 H       1  UNL1        0.0634
     38 H          -2.4935    3.4924    0.2380 H       1  UNL1        0.0586
     39 H          -4.0657    3.9672    0.9019 H       1  UNL1        0.0586
     40 H          -4.2420    2.3142   -2.7649 H       1  UNL1        0.0560
     41 H          -2.5843    2.5062   -1.9868 H       1  UNL1        0.0560
     42 H          -4.7143    0.5977   -1.0099 H       1  UNL1        0.0303
     43 H          -3.2417    0.2089   -2.0479 H       1  UNL1        0.0303
     44 H          -1.9034    1.4735   -0.2616 H       1  UNL1        0.0487
     45 H          -2.5094   -0.2807    1.6829 H       1  UNL1        0.1225
     46 H          -2.3798   -1.6252   -0.9804 H       1  UNL1        0.0461
     47 H          -2.7748   -3.1274    0.8871 H       1  UNL1        0.0283
     48 H          -1.7373   -2.1418    1.9799 H       1  UNL1        0.0283
     49 H          -0.2570   -3.9453    1.2586 H       1  UNL1        0.0311
     50 H          -1.8234   -3.5483   -1.3602 H       1  UNL1        0.0268
     51 H          -1.2935   -5.0805   -0.5996 H       1  UNL1        0.0268
     52 H           0.0342   -3.8245   -2.6930 H       1  UNL1        0.0266
     53 H           0.7945   -4.8994   -1.5041 H       1  UNL1        0.0266
     54 H           2.0250   -3.1661   -0.7331 H       1  UNL1        0.0275
     55 H           1.2616   -2.0075   -1.8709 H       1  UNL1        0.0275
     56 H           2.9746    0.2369    2.5767 H       1  UNL1        0.0468
     57 H           3.1398   -1.5408    2.9814 H       1  UNL1        0.0468
     58 H           4.7147   -1.4785    0.8367 H       1  UNL1        0.0344
     59 H           5.4244   -0.7590    2.3845 H       1  UNL1        0.0344
     60 H           6.2271    3.4917    0.6045 H       1  UNL1        0.0835
     61 H           2.7444    2.0818   -1.4215 H       1  UNL1        0.0627
     62 H           1.8025    0.0211   -0.7271 H       1  UNL1        0.0514
     63 H           3.2222   -1.0898   -0.8570 H       1  UNL1        0.0514
     64 H          -0.3592   -0.6967   -1.3010 H       1  UNL1        0.0290
     65 H          -0.2684   -0.1049    0.3949 H       1  UNL1        0.0290
@<TRIPOS>BOND
     1     1     2    1
     2     2     3    1
     3     3     4    1
     4     4     5    1
     5     5     6    1
     6     6     7    1
     7     7     8    1
     8     8     9    1
     9     9    10    1
    10    10    11    1
    11    11    12    1
    12    12    13    1
    13    13    14    1
    14    14    15    1
    15    15    16    1
    16    16    17    1
    17    17    18    2
    18    17    19   am
    19    19    20    1
    20    20    21    1
    21    21    22    1
    22    22    23   ar
    23    23    24   ar
    24    24    25   ar
    25    25    26    1
    26    26    27    1
    27    26    28    1
    28    26    29    1
    29    25    30   ar
    30    30    31   ar
    31    31    32    1
    32    16    33    1
    33     8     3    1
    34    33    10    1
    35    16    12    1
    36    32    19    1
    37    31    22   ar
    38     1    34    1
    39     1    35    1
    40     1    36    1
    41     3    37    1
    42     4    38    1
    43     4    39    1
    44     6    40    1
    45     6    41    1
    46     7    42    1
    47     7    43    1
    48     8    44    1
    49     9    45    1
    50    10    46    1
    51    11    47    1
    52    11    48    1
    53    12    49    1
    54    13    50    1
    55    13    51    1
    56    14    52    1
    57    14    53    1
    58    15    54    1
    59    15    55    1
    60    20    56    1
    61    20    57    1
    62    21    58    1
    63    21    59    1
    64    24    60    1
    65    30    61    1
    66    32    62    1
    67    32    63    1
    68    33    64    1
    69    33    65    1
