
     RDKit          3D

 83 88  0  0  0  0  0  0  0  0999 V2000
   -7.3208    4.6206   -0.1942 C   0  0  0  0  0  0  0  0  0  0  0  0
   -7.3393    3.2648    0.1337 O   0  0  0  0  0  0  0  0  0  0  0  0
   -6.3691    2.3581   -0.2685 C   0  0  0  0  0  0  0  0  0  0  0  0
   -5.3024    2.7930   -1.0438 C   0  0  0  0  0  0  0  0  0  0  0  0
   -4.3030    1.9490   -1.4790 C   0  0  0  0  0  0  0  0  0  0  0  0
   -4.3251    0.5874   -1.1482 C   0  0  0  0  0  0  0  0  0  0  0  0
   -5.3904    0.1919   -0.3829 C   0  0  0  0  0  0  0  0  0  0  0  0
   -6.3957    1.0198    0.0595 C   0  0  0  0  0  0  0  0  0  0  0  0
   -7.3166    0.3107    0.8051 O   0  0  0  0  0  0  0  0  0  0  0  0
   -6.6676   -0.9068    1.2067 C   0  0  1  0  0  0  0  0  0  0  0  0
   -7.7524   -1.9329    1.3486 C   0  0  0  0  0  0  0  0  0  0  0  0
   -7.4028   -3.3007    0.8053 C   0  0  1  0  0  0  0  0  0  0  0  0
   -8.6385   -3.9854    0.7144 O   0  0  0  0  0  0  0  0  0  0  0  0
   -6.9402   -3.0949   -0.5989 C   0  0  0  0  0  0  0  0  0  0  0  0
   -6.1365   -2.0854   -0.9162 C   0  0  0  0  0  0  0  0  0  0  0  0
   -5.6962   -1.1611    0.1267 C   0  0  1  0  0  0  0  0  0  0  0  0
   -4.3922   -1.6767    0.7304 C   0  0  0  0  0  0  0  0  0  0  0  0
   -3.3537   -2.0104   -0.2707 C   0  0  0  0  0  0  0  0  0  0  0  0
   -2.5235   -0.8987   -0.7043 N   0  0  0  0  0  0  0  0  0  0  0  0
   -1.9646   -0.1661    0.3757 C   0  0  0  0  0  0  0  0  0  0  0  0
   -1.0304    0.9061   -0.1539 C   0  0  0  0  0  0  0  0  0  0  0  0
    0.0559    0.2291   -0.9457 C   0  0  0  0  0  0  0  0  0  0  0  0
    0.9975    1.2977   -1.5088 C   0  0  0  0  0  0  0  0  0  0  0  0
    1.6007    2.0478   -0.3652 C   0  0  0  0  0  0  0  0  0  0  0  0
    2.3215    1.2717    0.5206 O   0  0  0  0  0  0  0  0  0  0  0  0
    3.4764    0.5999    0.2568 C   0  0  0  0  0  0  0  0  0  0  0  0
    4.0413   -0.1803    1.2958 C   0  0  0  0  0  0  0  0  0  0  0  0
    5.2013   -0.8930    1.1391 C   0  0  0  0  0  0  0  0  0  0  0  0
    5.8655   -0.8680   -0.0647 C   0  0  0  0  0  0  0  0  0  0  0  0
    7.1080   -1.6387   -0.2240 C   0  0  0  0  0  0  0  0  0  0  0  0
    8.3061   -0.9371    0.1194 N   0  0  0  0  0  0  0  0  0  0  0  0
    8.3436   -0.4849    1.4782 C   0  0  0  0  0  0  0  0  0  0  0  0
    9.5744    0.3979    1.6432 C   0  0  0  0  0  0  0  0  0  0  0  0
   10.6246    0.0161    0.6209 C   0  0  0  0  0  0  0  0  0  0  0  0
   10.1418    0.2992   -0.7847 C   0  0  0  0  0  0  0  0  0  0  0  0
    8.6123    0.1799   -0.7497 C   0  0  0  0  0  0  0  0  0  0  0  0
    5.3677   -0.1306   -1.1065 C   0  0  0  0  0  0  0  0  0  0  0  0
    4.1921    0.5764   -0.9073 C   0  0  0  0  0  0  0  0  0  0  0  0
   -3.1506   -0.1305   -1.7309 C   0  0  0  0  0  0  0  0  0  0  0  0
   -6.3118    5.0800   -0.0159 H   0  0  0  0  0  0  0  0  0  0  0  0
   -7.5609    4.7360   -1.2718 H   0  0  0  0  0  0  0  0  0  0  0  0
   -8.0191    5.1782    0.4568 H   0  0  0  0  0  0  0  0  0  0  0  0
   -5.2557    3.8366   -1.3161 H   0  0  0  0  0  0  0  0  0  0  0  0
   -3.4639    2.2740   -2.0852 H   0  0  0  0  0  0  0  0  0  0  0  0
   -6.1601   -0.7256    2.2057 H   0  0  0  0  0  0  0  0  0  0  0  0
   -8.6689   -1.5581    0.8300 H   0  0  0  0  0  0  0  0  0  0  0  0
   -8.0659   -2.0324    2.4188 H   0  0  0  0  0  0  0  0  0  0  0  0
   -6.6995   -3.8560    1.4188 H   0  0  0  0  0  0  0  0  0  0  0  0
   -9.0857   -3.6194   -0.0903 H   0  0  0  0  0  0  0  0  0  0  0  0
   -7.2707   -3.7856   -1.3516 H   0  0  0  0  0  0  0  0  0  0  0  0
   -5.7962   -1.9362   -1.9603 H   0  0  0  0  0  0  0  0  0  0  0  0
   -4.6669   -2.6469    1.2440 H   0  0  0  0  0  0  0  0  0  0  0  0
   -4.0234   -1.0288    1.5209 H   0  0  0  0  0  0  0  0  0  0  0  0
   -2.6385   -2.7399    0.2099 H   0  0  0  0  0  0  0  0  0  0  0  0
   -3.7436   -2.5023   -1.1677 H   0  0  0  0  0  0  0  0  0  0  0  0
   -1.4098   -0.7666    1.1025 H   0  0  0  0  0  0  0  0  0  0  0  0
   -2.7940    0.4201    0.8783 H   0  0  0  0  0  0  0  0  0  0  0  0
   -0.5494    1.4227    0.7286 H   0  0  0  0  0  0  0  0  0  0  0  0
   -1.5198    1.6529   -0.7979 H   0  0  0  0  0  0  0  0  0  0  0  0
    0.6659   -0.3840   -0.2442 H   0  0  0  0  0  0  0  0  0  0  0  0
   -0.3167   -0.3558   -1.7993 H   0  0  0  0  0  0  0  0  0  0  0  0
    0.3146    2.0138   -2.0601 H   0  0  0  0  0  0  0  0  0  0  0  0
    1.7072    0.8799   -2.2057 H   0  0  0  0  0  0  0  0  0  0  0  0
    0.8350    2.6961    0.1307 H   0  0  0  0  0  0  0  0  0  0  0  0
    2.2955    2.8339   -0.8458 H   0  0  0  0  0  0  0  0  0  0  0  0
    3.5403   -0.2224    2.2644 H   0  0  0  0  0  0  0  0  0  0  0  0
    5.5806   -1.4777    1.9921 H   0  0  0  0  0  0  0  0  0  0  0  0
    7.0722   -2.5692    0.4009 H   0  0  0  0  0  0  0  0  0  0  0  0
    7.1647   -1.9508   -1.2974 H   0  0  0  0  0  0  0  0  0  0  0  0
    8.4098   -1.3246    2.1917 H   0  0  0  0  0  0  0  0  0  0  0  0
    7.4379    0.0946    1.7324 H   0  0  0  0  0  0  0  0  0  0  0  0
    9.3001    1.4572    1.6150 H   0  0  0  0  0  0  0  0  0  0  0  0
   10.0468    0.2201    2.6424 H   0  0  0  0  0  0  0  0  0  0  0  0
   11.5443    0.5893    0.8190 H   0  0  0  0  0  0  0  0  0  0  0  0
   10.7785   -1.0843    0.7283 H   0  0  0  0  0  0  0  0  0  0  0  0
   10.4825   -0.5342   -1.4583 H   0  0  0  0  0  0  0  0  0  0  0  0
   10.4560    1.2924   -1.1638 H   0  0  0  0  0  0  0  0  0  0  0  0
    8.2488    0.0195   -1.7853 H   0  0  0  0  0  0  0  0  0  0  0  0
    8.2502    1.1434   -0.3188 H   0  0  0  0  0  0  0  0  0  0  0  0
    5.8761   -0.0901   -2.0844 H   0  0  0  0  0  0  0  0  0  0  0  0
    3.8473    1.1711   -1.7471 H   0  0  0  0  0  0  0  0  0  0  0  0
   -2.4690    0.5868   -2.1715 H   0  0  0  0  0  0  0  0  0  0  0  0
   -3.4838   -0.8431   -2.5263 H   0  0  0  0  0  0  0  0  0  0  0  0
  1  2  1  0
  2  3  1  0
  3  4  2  0
  4  5  1  0
  5  6  2  0
  6  7  1  0
  7  8  2  0
  8  9  1  0
  9 10  1  0
 10 11  1  0
 11 12  1  0
 12 13  1  0
 12 14  1  0
 14 15  2  0
 15 16  1  0
 16 17  1  1
 17 18  1  0
 18 19  1  0
 19 20  1  0
 20 21  1  0
 21 22  1  0
 22 23  1  0
 23 24  1  0
 24 25  1  0
 25 26  1  0
 26 27  2  0
 27 28  1  0
 28 29  2  0
 29 30  1  0
 30 31  1  0
 31 32  1  0
 32 33  1  0
 33 34  1  0
 34 35  1  0
 35 36  1  0
 29 37  1  0
 37 38  2  0
 19 39  1  0
  8  3  1  0
 16 10  1  0
 38 26  1  0
 39  6  1  0
 16  7  1  0
 36 31  1  0
  1 40  1  0
  1 41  1  0
  1 42  1  0
  4 43  1  0
  5 44  1  0
 10 45  1  1
 11 46  1  0
 11 47  1  0
 12 48  1  1
 13 49  1  0
 14 50  1  0
 15 51  1  0
 17 52  1  0
 17 53  1  0
 18 54  1  0
 18 55  1  0
 20 56  1  0
 20 57  1  0
 21 58  1  0
 21 59  1  0
 22 60  1  0
 22 61  1  0
 23 62  1  0
 23 63  1  0
 24 64  1  0
 24 65  1  0
 27 66  1  0
 28 67  1  0
 30 68  1  0
 30 69  1  0
 32 70  1  0
 32 71  1  0
 33 72  1  0
 33 73  1  0
 34 74  1  0
 34 75  1  0
 35 76  1  0
 35 77  1  0
 36 78  1  0
 36 79  1  0
 37 80  1  0
 38 81  1  0
 39 82  1  0
 39 83  1  0
M  END
$$$$
