@<TRIPOS>MOLECULE
*****
 83 88 0 0 0
SMALL
GASTEIGER

@<TRIPOS>ATOM
      1 C          -7.3208    4.6206   -0.1942 C.3     1  UNL1        0.0790
      2 O          -7.3393    3.2648    0.1337 O.3     1  UNL1       -0.4914
      3 C          -6.3691    2.3581   -0.2685 C.ar    1  UNL1        0.1618
      4 C          -5.3024    2.7930   -1.0438 C.ar    1  UNL1       -0.0160
      5 C          -4.3030    1.9490   -1.4790 C.ar    1  UNL1       -0.0534
      6 C          -4.3251    0.5874   -1.1482 C.ar    1  UNL1       -0.0255
      7 C          -5.3904    0.1919   -0.3829 C.ar    1  UNL1        0.0158
      8 C          -6.3957    1.0198    0.0595 C.ar    1  UNL1        0.1667
      9 O          -7.3166    0.3107    0.8051 O.3     1  UNL1       -0.4836
     10 C          -6.6676   -0.9068    1.2067 C.3     1  UNL1        0.1161
     11 C          -7.7524   -1.9329    1.3486 C.3     1  UNL1        0.0151
     12 C          -7.4028   -3.3007    0.8053 C.3     1  UNL1        0.0768
     13 O          -8.6385   -3.9854    0.7144 O.3     1  UNL1       -0.3876
     14 C          -6.9402   -3.0949   -0.5989 C.2     1  UNL1       -0.0588
     15 C          -6.1365   -2.0854   -0.9162 C.2     1  UNL1       -0.0715
     16 C          -5.6962   -1.1611    0.1267 C.3     1  UNL1        0.0558
     17 C          -4.3922   -1.6767    0.7304 C.3     1  UNL1       -0.0235
     18 C          -3.3537   -2.0104   -0.2707 C.3     1  UNL1        0.0004
     19 N          -2.5235   -0.8987   -0.7043 N.3     1  UNL1       -0.2981
     20 C          -1.9646   -0.1661    0.3757 C.3     1  UNL1       -0.0008
     21 C          -1.0304    0.9061   -0.1539 C.3     1  UNL1       -0.0401
     22 C           0.0559    0.2291   -0.9457 C.3     1  UNL1       -0.0488
     23 C           0.9975    1.2977   -1.5088 C.3     1  UNL1       -0.0186
     24 C           1.6007    2.0478   -0.3652 C.3     1  UNL1        0.0896
     25 O           2.3215    1.2717    0.5206 O.3     1  UNL1       -0.4920
     26 C           3.4764    0.5999    0.2568 C.ar    1  UNL1        0.1205
     27 C           4.0413   -0.1803    1.2958 C.ar    1  UNL1       -0.0196
     28 C           5.2013   -0.8930    1.1391 C.ar    1  UNL1       -0.0539
     29 C           5.8655   -0.8680   -0.0647 C.ar    1  UNL1       -0.0331
     30 C           7.1080   -1.6387   -0.2240 C.3     1  UNL1        0.0240
     31 N           8.3061   -0.9371    0.1194 N.3     1  UNL1       -0.2982
     32 C           8.3436   -0.4849    1.4782 C.3     1  UNL1       -0.0008
     33 C           9.5744    0.3979    1.6432 C.3     1  UNL1       -0.0402
     34 C          10.6246    0.0161    0.6209 C.3     1  UNL1       -0.0507
     35 C          10.1418    0.2992   -0.7847 C.3     1  UNL1       -0.0402
     36 C           8.6123    0.1799   -0.7497 C.3     1  UNL1       -0.0008
     37 C           5.3677   -0.1306   -1.1065 C.ar    1  UNL1       -0.0539
     38 C           4.1921    0.5764   -0.9073 C.ar    1  UNL1       -0.0196
     39 C          -3.1506   -0.1305   -1.7309 C.3     1  UNL1        0.0244
     40 H          -6.3118    5.0800   -0.0159 H       1  UNL1        0.0660
     41 H          -7.5609    4.7360   -1.2718 H       1  UNL1        0.0660
     42 H          -8.0191    5.1782    0.4568 H       1  UNL1        0.0660
     43 H          -5.2557    3.8366   -1.3161 H       1  UNL1        0.0655
     44 H          -3.4639    2.2740   -2.0852 H       1  UNL1        0.0622
     45 H          -6.1601   -0.7256    2.2057 H       1  UNL1        0.0746
     46 H          -8.6689   -1.5581    0.8300 H       1  UNL1        0.0329
     47 H          -8.0659   -2.0324    2.4188 H       1  UNL1        0.0329
     48 H          -6.6995   -3.8560    1.4188 H       1  UNL1        0.0639
     49 H          -9.0857   -3.6194   -0.0903 H       1  UNL1        0.2102
     50 H          -7.2707   -3.7856   -1.3516 H       1  UNL1        0.0595
     51 H          -5.7962   -1.9362   -1.9603 H       1  UNL1        0.0580
     52 H          -4.6669   -2.6469    1.2440 H       1  UNL1        0.0290
     53 H          -4.0234   -1.0288    1.5209 H       1  UNL1        0.0290
     54 H          -2.6385   -2.7399    0.2099 H       1  UNL1        0.0427
     55 H          -3.7436   -2.5023   -1.1677 H       1  UNL1        0.0427
     56 H          -1.4098   -0.7666    1.1025 H       1  UNL1        0.0427
     57 H          -2.7940    0.4201    0.8783 H       1  UNL1        0.0427
     58 H          -0.5494    1.4227    0.7286 H       1  UNL1        0.0278
     59 H          -1.5198    1.6529   -0.7979 H       1  UNL1        0.0278
     60 H           0.6659   -0.3840   -0.2442 H       1  UNL1        0.0267
     61 H          -0.3167   -0.3558   -1.7993 H       1  UNL1        0.0267
     62 H           0.3146    2.0138   -2.0601 H       1  UNL1        0.0298
     63 H           1.7072    0.8799   -2.2057 H       1  UNL1        0.0298
     64 H           0.8350    2.6961    0.1307 H       1  UNL1        0.0696
     65 H           2.2955    2.8339   -0.8458 H       1  UNL1        0.0696
     66 H           3.5403   -0.2224    2.2644 H       1  UNL1        0.0654
     67 H           5.5806   -1.4777    1.9921 H       1  UNL1        0.0622
     68 H           7.0722   -2.5692    0.4009 H       1  UNL1        0.0476
     69 H           7.1647   -1.9508   -1.2974 H       1  UNL1        0.0476
     70 H           8.4098   -1.3246    2.1917 H       1  UNL1        0.0427
     71 H           7.4379    0.0946    1.7324 H       1  UNL1        0.0427
     72 H           9.3001    1.4572    1.6150 H       1  UNL1        0.0278
     73 H          10.0468    0.2201    2.6424 H       1  UNL1        0.0278
     74 H          11.5443    0.5893    0.8190 H       1  UNL1        0.0266
     75 H          10.7785   -1.0843    0.7283 H       1  UNL1        0.0266
     76 H          10.4825   -0.5342   -1.4583 H       1  UNL1        0.0278
     77 H          10.4560    1.2924   -1.1638 H       1  UNL1        0.0278
     78 H           8.2488    0.0195   -1.7853 H       1  UNL1        0.0427
     79 H           8.2502    1.1434   -0.3188 H       1  UNL1        0.0427
     80 H           5.8761   -0.0901   -2.0844 H       1  UNL1        0.0622
     81 H           3.8473    1.1711   -1.7471 H       1  UNL1        0.0654
     82 H          -2.4690    0.5868   -2.1715 H       1  UNL1        0.0476
     83 H          -3.4838   -0.8431   -2.5263 H       1  UNL1        0.0476
@<TRIPOS>BOND
     1     1     2    1
     2     2     3    1
     3     3     4   ar
     4     4     5   ar
     5     5     6   ar
     6     6     7   ar
     7     7     8   ar
     8     8     9    1
     9     9    10    1
    10    10    11    1
    11    11    12    1
    12    12    13    1
    13    12    14    1
    14    14    15    2
    15    15    16    1
    16    16    17    1
    17    17    18    1
    18    18    19    1
    19    19    20    1
    20    20    21    1
    21    21    22    1
    22    22    23    1
    23    23    24    1
    24    24    25    1
    25    25    26    1
    26    26    27   ar
    27    27    28   ar
    28    28    29   ar
    29    29    30    1
    30    30    31    1
    31    31    32    1
    32    32    33    1
    33    33    34    1
    34    34    35    1
    35    35    36    1
    36    29    37   ar
    37    37    38   ar
    38    19    39    1
    39     8     3   ar
    40    16    10    1
    41    38    26   ar
    42    39     6    1
    43    16     7    1
    44    36    31    1
    45     1    40    1
    46     1    41    1
    47     1    42    1
    48     4    43    1
    49     5    44    1
    50    10    45    1
    51    11    46    1
    52    11    47    1
    53    12    48    1
    54    13    49    1
    55    14    50    1
    56    15    51    1
    57    17    52    1
    58    17    53    1
    59    18    54    1
    60    18    55    1
    61    20    56    1
    62    20    57    1
    63    21    58    1
    64    21    59    1
    65    22    60    1
    66    22    61    1
    67    23    62    1
    68    23    63    1
    69    24    64    1
    70    24    65    1
    71    27    66    1
    72    28    67    1
    73    30    68    1
    74    30    69    1
    75    32    70    1
    76    32    71    1
    77    33    72    1
    78    33    73    1
    79    34    74    1
    80    34    75    1
    81    35    76    1
    82    35    77    1
    83    36    78    1
    84    36    79    1
    85    37    80    1
    86    38    81    1
    87    39    82    1
    88    39    83    1
