
     RDKit          3D

 60 63  0  0  0  0  0  0  0  0999 V2000
    7.3424   -3.0619   -1.1062 C   0  0  0  0  0  0  0  0  0  0  0  0
    6.9725   -2.1370   -0.1001 O   0  0  0  0  0  0  0  0  0  0  0  0
    5.8314   -1.3781   -0.1237 C   0  0  0  0  0  0  0  0  0  0  0  0
    4.9459   -1.4789   -1.1749 C   0  0  0  0  0  0  0  0  0  0  0  0
    3.7794   -0.7404   -1.2572 C   0  0  0  0  0  0  0  0  0  0  0  0
    3.5362    0.1249   -0.2123 C   0  0  0  0  0  0  0  0  0  0  0  0
    4.4149    0.2318    0.8422 C   0  0  0  0  0  0  0  0  0  0  0  0
    5.5770   -0.5083    0.9187 C   0  0  0  0  0  0  0  0  0  0  0  0
    6.4531   -0.3861    1.9953 O   0  0  0  0  0  0  0  0  0  0  0  0
    6.1267    0.5208    3.0293 C   0  0  0  0  0  0  0  0  0  0  0  0
    2.2593    0.7975   -0.5229 C   0  0  0  0  0  0  0  0  0  0  0  0
    1.8657    1.8471    0.0394 O   0  0  0  0  0  0  0  0  0  0  0  0
    1.5741    0.0140   -1.5850 C   0  0  0  0  0  0  0  0  0  0  0  0
    0.7071   -1.0313   -0.8942 C   0  0  0  0  0  0  0  0  0  0  0  0
   -0.2848   -0.2882   -0.0331 C   0  0  0  0  0  0  0  0  0  0  0  0
   -1.1573   -1.2759    0.6757 C   0  0  0  0  0  0  0  0  0  0  0  0
   -2.0742   -0.4498    1.5884 C   0  0  0  0  0  0  0  0  0  0  0  0
   -2.9703    0.3320    0.7987 N   0  0  0  0  0  0  0  0  0  0  0  0
   -4.3370   -0.0547    0.9758 C   0  0  0  0  0  0  0  0  0  0  0  0
   -5.2795    0.6873    0.1202 C   0  0  0  0  0  0  0  0  0  0  0  0
   -5.8068    0.0260   -0.9854 C   0  0  0  0  0  0  0  0  0  0  0  0
   -6.6878    0.7367   -1.7730 C   0  0  0  0  0  0  0  0  0  0  0  0
   -7.0395    2.0447   -1.4901 C   0  0  0  0  0  0  0  0  0  0  0  0
   -6.4903    2.6624   -0.3804 C   0  0  0  0  0  0  0  0  0  0  0  0
   -5.6030    1.9716    0.4277 C   0  0  0  0  0  0  0  0  0  0  0  0
   -5.0580    2.7130    1.5978 C   0  0  0  0  0  0  0  0  0  0  0  0
   -2.6450    0.2818   -0.6085 C   0  0  0  0  0  0  0  0  0  0  0  0
   -1.1957    0.5897   -0.8779 C   0  0  0  0  0  0  0  0  0  0  0  0
    2.6950   -0.6872   -2.2747 C   0  0  0  0  0  0  0  0  0  0  0  0
    8.0422   -3.7808   -0.6615 H   0  0  0  0  0  0  0  0  0  0  0  0
    6.4252   -3.6285   -1.3695 H   0  0  0  0  0  0  0  0  0  0  0  0
    7.7279   -2.5424   -2.0076 H   0  0  0  0  0  0  0  0  0  0  0  0
    5.1401   -2.1674   -2.0077 H   0  0  0  0  0  0  0  0  0  0  0  0
    4.2290    0.9167    1.6796 H   0  0  0  0  0  0  0  0  0  0  0  0
    6.1523    1.5545    2.5774 H   0  0  0  0  0  0  0  0  0  0  0  0
    5.1763    0.2952    3.5175 H   0  0  0  0  0  0  0  0  0  0  0  0
    6.9700    0.5140    3.7767 H   0  0  0  0  0  0  0  0  0  0  0  0
    0.9808    0.6518   -2.2541 H   0  0  0  0  0  0  0  0  0  0  0  0
    0.0980   -1.5639   -1.6704 H   0  0  0  0  0  0  0  0  0  0  0  0
    1.2858   -1.7430   -0.3007 H   0  0  0  0  0  0  0  0  0  0  0  0
    0.2762    0.3065    0.7198 H   0  0  0  0  0  0  0  0  0  0  0  0
   -1.7148   -1.9039   -0.0231 H   0  0  0  0  0  0  0  0  0  0  0  0
   -0.5517   -1.9904    1.3036 H   0  0  0  0  0  0  0  0  0  0  0  0
   -1.3977    0.2397    2.1342 H   0  0  0  0  0  0  0  0  0  0  0  0
   -2.5767   -1.1729    2.2585 H   0  0  0  0  0  0  0  0  0  0  0  0
   -4.4076   -1.1604    0.7928 H   0  0  0  0  0  0  0  0  0  0  0  0
   -4.6492    0.0927    2.0348 H   0  0  0  0  0  0  0  0  0  0  0  0
   -5.5648   -0.9803   -1.2429 H   0  0  0  0  0  0  0  0  0  0  0  0
   -7.1259    0.2764   -2.6403 H   0  0  0  0  0  0  0  0  0  0  0  0
   -7.7443    2.5854   -2.1344 H   0  0  0  0  0  0  0  0  0  0  0  0
   -6.7535    3.6740   -0.1498 H   0  0  0  0  0  0  0  0  0  0  0  0
   -5.9008    3.0145    2.2624 H   0  0  0  0  0  0  0  0  0  0  0  0
   -4.3586    2.1007    2.1651 H   0  0  0  0  0  0  0  0  0  0  0  0
   -4.6045    3.6855    1.2611 H   0  0  0  0  0  0  0  0  0  0  0  0
   -2.8969   -0.6701   -1.0941 H   0  0  0  0  0  0  0  0  0  0  0  0
   -3.2471    1.0619   -1.1687 H   0  0  0  0  0  0  0  0  0  0  0  0
   -0.9287    1.6432   -0.6557 H   0  0  0  0  0  0  0  0  0  0  0  0
   -1.0069    0.3577   -1.9348 H   0  0  0  0  0  0  0  0  0  0  0  0
    2.4532   -1.6904   -2.6617 H   0  0  0  0  0  0  0  0  0  0  0  0
    3.0212   -0.0794   -3.1636 H   0  0  0  0  0  0  0  0  0  0  0  0
  1  2  1  0
  2  3  1  0
  3  4  2  0
  4  5  1  0
  5  6  2  0
  6  7  1  0
  7  8  2  0
  8  9  1  0
  9 10  1  0
  6 11  1  0
 11 12  2  0
 11 13  1  0
 13 14  1  0
 14 15  1  0
 15 16  1  0
 16 17  1  0
 17 18  1  0
 18 19  1  0
 19 20  1  0
 20 21  2  0
 21 22  1  0
 22 23  2  0
 23 24  1  0
 24 25  2  0
 25 26  1  0
 18 27  1  0
 27 28  1  0
 13 29  1  0
  8  3  1  0
 28 15  1  0
 29  5  1  0
 25 20  1  0
  1 30  1  0
  1 31  1  0
  1 32  1  0
  4 33  1  0
  7 34  1  0
 10 35  1  0
 10 36  1  0
 10 37  1  0
 13 38  1  0
 14 39  1  0
 14 40  1  0
 15 41  1  0
 16 42  1  0
 16 43  1  0
 17 44  1  0
 17 45  1  0
 19 46  1  0
 19 47  1  0
 21 48  1  0
 22 49  1  0
 23 50  1  0
 24 51  1  0
 26 52  1  0
 26 53  1  0
 26 54  1  0
 27 55  1  0
 27 56  1  0
 28 57  1  0
 28 58  1  0
 29 59  1  0
 29 60  1  0
M  END
$$$$
