@<TRIPOS>MOLECULE
*****
 60 63 0 0 0
SMALL
GASTEIGER

@<TRIPOS>ATOM
      1 C           7.3424   -3.0619   -1.1062 C.3     1  UNL1        0.0790
      2 O           6.9725   -2.1370   -0.1001 O.3     1  UNL1       -0.4914
      3 C           5.8314   -1.3781   -0.1237 C.ar    1  UNL1        0.1618
      4 C           4.9459   -1.4789   -1.1749 C.ar    1  UNL1       -0.0124
      5 C           3.7794   -0.7404   -1.2572 C.ar    1  UNL1       -0.0325
      6 C           3.5362    0.1249   -0.2123 C.ar    1  UNL1        0.0246
      7 C           4.4149    0.2318    0.8422 C.ar    1  UNL1       -0.0056
      8 C           5.5770   -0.5083    0.9187 C.ar    1  UNL1        0.1622
      9 O           6.4531   -0.3861    1.9953 O.3     1  UNL1       -0.4914
     10 C           6.1267    0.5208    3.0293 C.3     1  UNL1        0.0790
     11 C           2.2593    0.7975   -0.5229 C.2     1  UNL1        0.1669
     12 O           1.8657    1.8471    0.0394 O.2     1  UNL1       -0.2917
     13 C           1.5741    0.0140   -1.5850 C.3     1  UNL1        0.0264
     14 C           0.7071   -1.0313   -0.8942 C.3     1  UNL1       -0.0399
     15 C          -0.2848   -0.2882   -0.0331 C.3     1  UNL1       -0.0381
     16 C          -1.1573   -1.2759    0.6757 C.3     1  UNL1       -0.0373
     17 C          -2.0742   -0.4498    1.5884 C.3     1  UNL1       -0.0005
     18 N          -2.9703    0.3320    0.7987 N.3     1  UNL1       -0.2981
     19 C          -4.3370   -0.0547    0.9758 C.3     1  UNL1        0.0243
     20 C          -5.2795    0.6873    0.1202 C.ar    1  UNL1       -0.0305
     21 C          -5.8068    0.0260   -0.9854 C.ar    1  UNL1       -0.0571
     22 C          -6.6878    0.7367   -1.7730 C.ar    1  UNL1       -0.0614
     23 C          -7.0395    2.0447   -1.4901 C.ar    1  UNL1       -0.0615
     24 C          -6.4903    2.6624   -0.3804 C.ar    1  UNL1       -0.0585
     25 C          -5.6030    1.9716    0.4277 C.ar    1  UNL1       -0.0460
     26 C          -5.0580    2.7130    1.5978 C.3     1  UNL1       -0.0394
     27 C          -2.6450    0.2818   -0.6085 C.3     1  UNL1       -0.0005
     28 C          -1.1957    0.5897   -0.8779 C.3     1  UNL1       -0.0373
     29 C           2.6950   -0.6872   -2.2747 C.3     1  UNL1       -0.0170
     30 H           8.0422   -3.7808   -0.6615 H       1  UNL1        0.0660
     31 H           6.4252   -3.6285   -1.3695 H       1  UNL1        0.0660
     32 H           7.7279   -2.5424   -2.0076 H       1  UNL1        0.0660
     33 H           5.1401   -2.1674   -2.0077 H       1  UNL1        0.0658
     34 H           4.2290    0.9167    1.6796 H       1  UNL1        0.0662
     35 H           6.1523    1.5545    2.5774 H       1  UNL1        0.0660
     36 H           5.1763    0.2952    3.5175 H       1  UNL1        0.0660
     37 H           6.9700    0.5140    3.7767 H       1  UNL1        0.0660
     38 H           0.9808    0.6518   -2.2541 H       1  UNL1        0.0384
     39 H           0.0980   -1.5639   -1.6704 H       1  UNL1        0.0275
     40 H           1.2858   -1.7430   -0.3007 H       1  UNL1        0.0275
     41 H           0.2762    0.3065    0.7198 H       1  UNL1        0.0302
     42 H          -1.7148   -1.9039   -0.0231 H       1  UNL1        0.0280
     43 H          -0.5517   -1.9904    1.3036 H       1  UNL1        0.0280
     44 H          -1.3977    0.2397    2.1342 H       1  UNL1        0.0427
     45 H          -2.5767   -1.1729    2.2585 H       1  UNL1        0.0427
     46 H          -4.4076   -1.1604    0.7928 H       1  UNL1        0.0476
     47 H          -4.6492    0.0927    2.0348 H       1  UNL1        0.0476
     48 H          -5.5648   -0.9803   -1.2429 H       1  UNL1        0.0621
     49 H          -7.1259    0.2764   -2.6403 H       1  UNL1        0.0618
     50 H          -7.7443    2.5854   -2.1344 H       1  UNL1        0.0618
     51 H          -6.7535    3.6740   -0.1498 H       1  UNL1        0.0620
     52 H          -5.9008    3.0145    2.2624 H       1  UNL1        0.0278
     53 H          -4.3586    2.1007    2.1651 H       1  UNL1        0.0278
     54 H          -4.6045    3.6855    1.2611 H       1  UNL1        0.0278
     55 H          -2.8969   -0.6701   -1.0941 H       1  UNL1        0.0427
     56 H          -3.2471    1.0619   -1.1687 H       1  UNL1        0.0427
     57 H          -0.9287    1.6432   -0.6557 H       1  UNL1        0.0280
     58 H          -1.0069    0.3577   -1.9348 H       1  UNL1        0.0280
     59 H           2.4532   -1.6904   -2.6617 H       1  UNL1        0.0320
     60 H           3.0212   -0.0794   -3.1636 H       1  UNL1        0.0320
@<TRIPOS>BOND
     1     1     2    1
     2     2     3    1
     3     3     4   ar
     4     4     5   ar
     5     5     6   ar
     6     6     7   ar
     7     7     8   ar
     8     8     9    1
     9     9    10    1
    10     6    11    1
    11    11    12    2
    12    11    13    1
    13    13    14    1
    14    14    15    1
    15    15    16    1
    16    16    17    1
    17    17    18    1
    18    18    19    1
    19    19    20    1
    20    20    21   ar
    21    21    22   ar
    22    22    23   ar
    23    23    24   ar
    24    24    25   ar
    25    25    26    1
    26    18    27    1
    27    27    28    1
    28    13    29    1
    29     8     3   ar
    30    28    15    1
    31    29     5    1
    32    25    20   ar
    33     1    30    1
    34     1    31    1
    35     1    32    1
    36     4    33    1
    37     7    34    1
    38    10    35    1
    39    10    36    1
    40    10    37    1
    41    13    38    1
    42    14    39    1
    43    14    40    1
    44    15    41    1
    45    16    42    1
    46    16    43    1
    47    17    44    1
    48    17    45    1
    49    19    46    1
    50    19    47    1
    51    21    48    1
    52    22    49    1
    53    23    50    1
    54    24    51    1
    55    26    52    1
    56    26    53    1
    57    26    54    1
    58    27    55    1
    59    27    56    1
    60    28    57    1
    61    28    58    1
    62    29    59    1
    63    29    60    1
