@<TRIPOS>MOLECULE
*****
 24 24 0 0 0
SMALL
GASTEIGER

@<TRIPOS>ATOM
      1 O           3.1294    0.0041    0.9011 O.3     1  UNK1       -0.3934
      2 C           1.9767    0.7211    0.5879 C.3     1  UNK1        0.0620
      3 C           1.0412   -0.1129   -0.3028 C.3     1  UNK1        0.0596
      4 N           0.6963   -1.2640    0.3904 N.3     1  UNK1       -0.3064
      5 C          -0.5920   -1.4865    0.8633 C.3     0  UNK0        0.0249
      6 C          -1.4888   -0.3028    0.7595 C.3     1  UNK1        0.0959
      7 O          -2.7911   -0.5392    1.1490 O.3     1  UNK1       -0.3879
      8 C          -1.3999    0.1246   -0.7077 C.3     1  UNK1        0.1095
      9 O          -2.4116    0.9772   -1.0595 O.3     1  UNK1       -0.3866
     10 C          -0.0227    0.7849   -0.7962 C.3     1  UNK1        0.1009
     11 O           0.1969    1.2391   -2.1087 O.3     1  UNK1       -0.3875
     12 H           3.9277    0.4988    0.5990 H       1  UNK1        0.2095
     13 H           1.4400    1.0181    1.5217 H       1  UNK1        0.0573
     14 H           2.2484    1.6686    0.0845 H       1  UNK1        0.0573
     15 H           1.6750   -0.3993   -1.1946 H       1  UNK1        0.0509
     16 H           1.2834   -2.0829    0.2328 H       1  UNK1        0.1224
     17 H          -0.6001   -1.8772    1.9185 H       0  UNK0        0.0450
     18 H          -1.0710   -2.3170    0.2678 H       0  UNK0        0.0450
     19 H          -1.0340    0.5134    1.3907 H       1  UNK1        0.0633
     20 H          -3.1191    0.2158    1.7135 H       1  UNK1        0.2099
     21 H          -1.3551   -0.7566   -1.3834 H       1  UNK1        0.0646
     22 H          -2.4472    1.0161   -2.0486 H       1  UNK1        0.2100
     23 H          -0.0986    1.7044   -0.1750 H       1  UNK1        0.0636
     24 H           0.8163    0.6521   -2.6032 H       1  UNK1        0.2100
@<TRIPOS>BOND
     1     1     2    1
     2     2     3    1
     3     3     4    1
     4     4     5    1
     5     5     6    1
     6     6     7    1
     7     6     8    1
     8     8     9    1
     9     8    10    1
    10    10    11    1
    11    10     3    1
    12     1    12    1
    13     2    13    1
    14     2    14    1
    15     3    15    1
    16     4    16    1
    17     5    17    1
    18     5    18    1
    19     6    19    1
    20     7    20    1
    21     8    21    1
    22     9    22    1
    23    10    23    1
    24    11    24    1
