
     RDKit          3D

 24 24  0  0  0  0  0  0  0  0999 V2000
    3.1294    0.0041    0.9011 O   0  0  0  0  0  0  0  0  0  0  0  0
    1.9767    0.7211    0.5879 C   0  0  0  0  0  0  0  0  0  0  0  0
    1.0412   -0.1129   -0.3028 C   0  0  1  0  0  0  0  0  0  0  0  0
    0.6963   -1.2640    0.3904 N   0  0  0  0  0  0  0  0  0  0  0  0
   -0.5920   -1.4865    0.8633 C   0  0  0  0  0  0  0  0  0  0  0  0
   -1.4888   -0.3028    0.7595 C   0  0  2  0  0  0  0  0  0  0  0  0
   -2.7911   -0.5392    1.1490 O   0  0  0  0  0  0  0  0  0  0  0  0
   -1.3999    0.1246   -0.7077 C   0  0  1  0  0  0  0  0  0  0  0  0
   -2.4116    0.9772   -1.0595 O   0  0  0  0  0  0  0  0  0  0  0  0
   -0.0227    0.7849   -0.7962 C   0  0  2  0  0  0  0  0  0  0  0  0
    0.1969    1.2391   -2.1087 O   0  0  0  0  0  0  0  0  0  0  0  0
    3.9277    0.4988    0.5990 H   0  0  0  0  0  0  0  0  0  0  0  0
    1.4400    1.0181    1.5217 H   0  0  0  0  0  0  0  0  0  0  0  0
    2.2484    1.6686    0.0845 H   0  0  0  0  0  0  0  0  0  0  0  0
    1.6750   -0.3993   -1.1946 H   0  0  0  0  0  0  0  0  0  0  0  0
    1.2834   -2.0829    0.2328 H   0  0  0  0  0  0  0  0  0  0  0  0
   -0.6001   -1.8772    1.9185 H   0  0  0  0  0  0  0  0  0  0  0  0
   -1.0710   -2.3170    0.2678 H   0  0  0  0  0  0  0  0  0  0  0  0
   -1.0340    0.5134    1.3907 H   0  0  0  0  0  0  0  0  0  0  0  0
   -3.1191    0.2158    1.7135 H   0  0  0  0  0  0  0  0  0  0  0  0
   -1.3551   -0.7566   -1.3834 H   0  0  0  0  0  0  0  0  0  0  0  0
   -2.4472    1.0161   -2.0486 H   0  0  0  0  0  0  0  0  0  0  0  0
   -0.0986    1.7044   -0.1750 H   0  0  0  0  0  0  0  0  0  0  0  0
    0.8163    0.6521   -2.6032 H   0  0  0  0  0  0  0  0  0  0  0  0
  1  2  1  0
  2  3  1  0
  3  4  1  0
  4  5  1  0
  5  6  1  0
  6  7  1  0
  6  8  1  0
  8  9  1  0
  8 10  1  0
 10 11  1  0
 10  3  1  0
  1 12  1  0
  2 13  1  0
  2 14  1  0
  3 15  1  6
  4 16  1  0
  5 17  1  0
  5 18  1  0
  6 19  1  1
  7 20  1  0
  8 21  1  6
  9 22  1  0
 10 23  1  1
 11 24  1  0
M  END
$$$$
