
     RDKit          3D

 90 94  0  0  0  0  0  0  0  0999 V2000
   -2.6880    5.1002   -6.1224 C   0  0  0  0  0  0  0  0  0  0  0  0
   -1.4406    4.8075   -5.5751 O   0  0  0  0  0  0  0  0  0  0  0  0
   -1.1687    4.7054   -4.2191 C   0  0  0  0  0  0  0  0  0  0  0  0
   -2.1056    4.8795   -3.2263 C   0  0  0  0  0  0  0  0  0  0  0  0
   -1.7833    4.7670   -1.8852 C   0  0  0  0  0  0  0  0  0  0  0  0
   -0.5046    4.4737   -1.4560 C   0  0  0  0  0  0  0  0  0  0  0  0
   -0.1379    4.3540   -0.0363 C   0  0  0  0  0  0  0  0  0  0  0  0
   -0.2437    2.9860    0.5479 C   0  0  2  0  0  0  0  0  0  0  0  0
    0.5993    2.0343   -0.1181 N   0  0  0  0  0  0  0  0  0  0  0  0
    1.6984    1.3531    0.4698 C   0  0  0  0  0  0  0  0  0  0  0  0
    1.9673    1.5785    1.6622 O   0  0  0  0  0  0  0  0  0  0  0  0
    2.5218    0.3953   -0.2961 C   0  0  1  0  0  0  0  0  0  0  0  0
    3.1916    1.1364   -1.4615 C   0  0  0  0  0  0  0  0  0  0  0  0
    3.5626   -0.1612    0.5448 N   0  0  0  0  0  0  0  0  0  0  0  0
    3.8239   -1.5484    0.6014 C   0  0  0  0  0  0  0  0  0  0  0  0
    3.0500   -2.2459   -0.1528 O   0  0  0  0  0  0  0  0  0  0  0  0
    4.8157   -2.2287    1.3750 C   0  0  0  0  0  0  0  0  0  0  0  0
    5.7061   -1.7891    2.2144 C   0  0  0  0  0  0  0  0  0  0  0  0
    5.9531   -0.3971    2.6267 C   0  0  0  0  0  0  0  0  0  0  0  0
    6.5372   -2.9053    2.7375 C   0  0  0  0  0  0  0  0  0  0  0  0
    7.5998   -2.9871    3.6099 C   0  0  0  0  0  0  0  0  0  0  0  0
    8.1992   -4.1963    3.8922 C   0  0  0  0  0  0  0  0  0  0  0  0
    7.7381   -5.3559    3.2982 C   0  0  0  0  0  0  0  0  0  0  0  0
    6.6804   -5.2977    2.4260 C   0  0  0  0  0  0  0  0  0  0  0  0
    6.1016   -4.0641    2.1658 C   0  0  0  0  0  0  0  0  0  0  0  0
    4.9762   -3.7266    1.3018 C   0  0  0  0  0  0  0  0  0  0  0  0
   -1.6535    2.5132    0.6668 C   0  0  0  0  0  0  0  0  0  0  0  0
   -2.5751    3.2835    1.0689 O   0  0  0  0  0  0  0  0  0  0  0  0
   -2.0125    1.2001    0.3385 N   0  0  0  0  0  0  0  0  0  0  0  0
   -3.4334    0.7425    0.4340 C   0  0  1  0  0  0  0  0  0  0  0  0
   -3.5730   -0.2149   -0.6726 C   0  0  0  0  0  0  0  0  0  0  0  0
   -4.8222   -0.8906   -1.0122 C   0  0  0  0  0  0  0  0  0  0  0  0
   -5.5252   -1.7600   -0.0570 C   0  0  0  0  0  0  0  0  0  0  0  0
   -6.3164   -2.8169   -0.8812 C   0  0  0  0  0  0  0  0  0  0  0  0
   -5.2719   -3.8751   -1.2212 C   0  0  0  0  0  0  0  0  0  0  0  0
   -4.0106   -3.1210   -1.6621 C   0  0  0  0  0  0  0  0  0  0  0  0
   -4.4665   -1.8006   -2.2311 C   0  0  0  0  0  0  0  0  0  0  0  0
   -3.5825    0.0403    1.7643 C   0  0  0  0  0  0  0  0  0  0  0  0
   -4.7202   -0.2223    2.1856 O   0  0  0  0  0  0  0  0  0  0  0  0
   -2.4858   -0.3750    2.6357 C   0  0  1  0  0  0  0  0  0  0  0  0
   -2.7883   -0.5092    4.1139 C   0  0  0  0  0  0  0  0  0  0  0  0
   -1.2236   -0.9630    2.1853 C   0  0  0  0  0  0  0  0  0  0  0  0
   -1.2591    0.3971    2.3451 O   0  0  0  0  0  0  0  0  0  0  0  0
    0.4404    4.2982   -2.4655 C   0  0  0  0  0  0  0  0  0  0  0  0
    0.1299    4.4080   -3.7977 C   0  0  0  0  0  0  0  0  0  0  0  0
   -3.2959    4.2068   -6.4079 H   0  0  0  0  0  0  0  0  0  0  0  0
   -2.4809    5.7327   -7.0370 H   0  0  0  0  0  0  0  0  0  0  0  0
   -3.3291    5.7336   -5.4705 H   0  0  0  0  0  0  0  0  0  0  0  0
   -3.1298    5.1130   -3.5410 H   0  0  0  0  0  0  0  0  0  0  0  0
   -2.5401    4.9098   -1.1259 H   0  0  0  0  0  0  0  0  0  0  0  0
   -0.7520    5.0570    0.6074 H   0  0  0  0  0  0  0  0  0  0  0  0
    0.9200    4.7027    0.1590 H   0  0  0  0  0  0  0  0  0  0  0  0
    0.1825    3.0751    1.5959 H   0  0  0  0  0  0  0  0  0  0  0  0
    0.4338    1.7765   -1.1426 H   0  0  0  0  0  0  0  0  0  0  0  0
    1.8803   -0.3475   -0.7679 H   0  0  0  0  0  0  0  0  0  0  0  0
    3.9689    0.4622   -1.8610 H   0  0  0  0  0  0  0  0  0  0  0  0
    3.6067    2.0901   -1.0476 H   0  0  0  0  0  0  0  0  0  0  0  0
    2.3707    1.3373   -2.1811 H   0  0  0  0  0  0  0  0  0  0  0  0
    4.1277    0.4804    1.1128 H   0  0  0  0  0  0  0  0  0  0  0  0
    6.3143    0.2582    1.8318 H   0  0  0  0  0  0  0  0  0  0  0  0
    6.7674   -0.3575    3.4221 H   0  0  0  0  0  0  0  0  0  0  0  0
    5.0717    0.0339    3.1773 H   0  0  0  0  0  0  0  0  0  0  0  0
    7.9456   -2.0701    4.0642 H   0  0  0  0  0  0  0  0  0  0  0  0
    9.0368   -4.2542    4.5812 H   0  0  0  0  0  0  0  0  0  0  0  0
    8.2096   -6.3024    3.5201 H   0  0  0  0  0  0  0  0  0  0  0  0
    6.3030   -6.2003    1.9473 H   0  0  0  0  0  0  0  0  0  0  0  0
    4.0221   -4.2269    1.5536 H   0  0  0  0  0  0  0  0  0  0  0  0
    5.2511   -4.0019    0.2461 H   0  0  0  0  0  0  0  0  0  0  0  0
   -1.2956    0.5269    0.0162 H   0  0  0  0  0  0  0  0  0  0  0  0
   -4.1284    1.5915    0.4024 H   0  0  0  0  0  0  0  0  0  0  0  0
   -2.7422   -0.9904   -0.5541 H   0  0  0  0  0  0  0  0  0  0  0  0
   -3.2217    0.2884   -1.6489 H   0  0  0  0  0  0  0  0  0  0  0  0
   -5.5748   -0.1681   -1.4638 H   0  0  0  0  0  0  0  0  0  0  0  0
   -4.9452   -2.3592    0.6342 H   0  0  0  0  0  0  0  0  0  0  0  0
   -6.3701   -1.1735    0.4068 H   0  0  0  0  0  0  0  0  0  0  0  0
   -6.7936   -2.3773   -1.7510 H   0  0  0  0  0  0  0  0  0  0  0  0
   -7.0676   -3.3044   -0.2293 H   0  0  0  0  0  0  0  0  0  0  0  0
   -5.0405   -4.4364   -0.2960 H   0  0  0  0  0  0  0  0  0  0  0  0
   -5.6032   -4.5791   -1.9869 H   0  0  0  0  0  0  0  0  0  0  0  0
   -3.3292   -2.9513   -0.8243 H   0  0  0  0  0  0  0  0  0  0  0  0
   -3.4731   -3.7183   -2.4317 H   0  0  0  0  0  0  0  0  0  0  0  0
   -3.5900   -1.3609   -2.7471 H   0  0  0  0  0  0  0  0  0  0  0  0
   -5.2710   -1.8536   -2.9497 H   0  0  0  0  0  0  0  0  0  0  0  0
   -2.1126    0.1635    4.6835 H   0  0  0  0  0  0  0  0  0  0  0  0
   -2.5907   -1.5864    4.3828 H   0  0  0  0  0  0  0  0  0  0  0  0
   -3.8437   -0.3126    4.3094 H   0  0  0  0  0  0  0  0  0  0  0  0
   -0.6078   -1.4781    2.9660 H   0  0  0  0  0  0  0  0  0  0  0  0
   -1.1094   -1.4663    1.2117 H   0  0  0  0  0  0  0  0  0  0  0  0
    1.4652    4.0635   -2.1453 H   0  0  0  0  0  0  0  0  0  0  0  0
    0.8603    4.2714   -4.5845 H   0  0  0  0  0  0  0  0  0  0  0  0
  1  2  1  0
  2  3  1  0
  3  4  2  0
  4  5  1  0
  5  6  2  0
  6  7  1  0
  7  8  1  0
  8  9  1  0
  9 10  1  0
 10 11  2  0
 10 12  1  0
 12 13  1  0
 12 14  1  0
 14 15  1  0
 15 16  2  0
 15 17  1  0
 17 18  2  0
 18 19  1  0
 18 20  1  0
 20 21  2  0
 21 22  1  0
 22 23  2  0
 23 24  1  0
 24 25  2  0
 25 26  1  0
  8 27  1  0
 27 28  2  0
 27 29  1  0
 29 30  1  0
 30 31  1  0
 31 32  1  0
 32 33  1  0
 33 34  1  0
 34 35  1  0
 35 36  1  0
 36 37  1  0
 30 38  1  0
 38 39  2  0
 38 40  1  0
 40 41  1  1
 40 42  1  0
 42 43  1  0
  6 44  1  0
 44 45  2  0
 45  3  1  0
 26 17  1  0
 37 32  1  0
 43 40  1  0
 25 20  1  0
  1 46  1  0
  1 47  1  0
  1 48  1  0
  4 49  1  0
  5 50  1  0
  7 51  1  0
  7 52  1  0
  8 53  1  1
  9 54  1  0
 12 55  1  6
 13 56  1  0
 13 57  1  0
 13 58  1  0
 14 59  1  0
 19 60  1  0
 19 61  1  0
 19 62  1  0
 21 63  1  0
 22 64  1  0
 23 65  1  0
 24 66  1  0
 26 67  1  0
 26 68  1  0
 29 69  1  0
 30 70  1  6
 31 71  1  0
 31 72  1  0
 32 73  1  0
 33 74  1  0
 33 75  1  0
 34 76  1  0
 34 77  1  0
 35 78  1  0
 35 79  1  0
 36 80  1  0
 36 81  1  0
 37 82  1  0
 37 83  1  0
 41 84  1  0
 41 85  1  0
 41 86  1  0
 42 87  1  0
 42 88  1  0
 44 89  1  0
 45 90  1  0
M  END
$$$$
