@<TRIPOS>MOLECULE
*****
 90 94 0 0 0
SMALL
GASTEIGER

@<TRIPOS>ATOM
      1 C          -2.6880    5.1002   -6.1224 C.3     1  UNL1        0.0788
      2 O          -1.4406    4.8075   -5.5751 O.3     1  UNL1       -0.4951
      3 C          -1.1687    4.7054   -4.2191 C.ar    1  UNL1        0.1201
      4 C          -2.1056    4.8795   -3.2263 C.ar    1  UNL1       -0.0197
      5 C          -1.7833    4.7670   -1.8852 C.ar    1  UNL1       -0.0550
      6 C          -0.5046    4.4737   -1.4560 C.ar    1  UNL1       -0.0449
      7 C          -0.1379    4.3540   -0.0363 C.3     1  UNL1       -0.0007
      8 C          -0.2437    2.9860    0.5479 C.3     1  UNL1        0.1034
      9 N           0.5993    2.0343   -0.1181 N.am    1  UNL1       -0.3022
     10 C           1.6984    1.3531    0.4698 C.2     1  UNL1        0.2337
     11 O           1.9673    1.5785    1.6622 O.2     1  UNL1       -0.2738
     12 C           2.5218    0.3953   -0.2961 C.3     1  UNL1        0.0969
     13 C           3.1916    1.1364   -1.4615 C.3     1  UNL1       -0.0381
     14 N           3.5626   -0.1612    0.5448 N.am    1  UNL1       -0.3005
     15 C           3.8239   -1.5484    0.6014 C.2     1  UNL1        0.2412
     16 O           3.0500   -2.2459   -0.1528 O.2     1  UNL1       -0.2705
     17 C           4.8157   -2.2287    1.3750 C.2     1  UNL1        0.0221
     18 C           5.7061   -1.7891    2.2144 C.2     1  UNL1       -0.0346
     19 C           5.9531   -0.3971    2.6267 C.3     1  UNL1       -0.0387
     20 C           6.5372   -2.9053    2.7375 C.ar    1  UNL1       -0.0182
     21 C           7.5998   -2.9871    3.6099 C.ar    1  UNL1       -0.0541
     22 C           8.1992   -4.1963    3.8922 C.ar    1  UNL1       -0.0612
     23 C           7.7381   -5.3559    3.2982 C.ar    1  UNL1       -0.0615
     24 C           6.6804   -5.2977    2.4260 C.ar    1  UNL1       -0.0577
     25 C           6.1016   -4.0641    2.1658 C.ar    1  UNL1       -0.0355
     26 C           4.9762   -3.7266    1.3018 C.3     1  UNL1        0.0033
     27 C          -1.6535    2.5132    0.6668 C.2     1  UNL1        0.2342
     28 O          -2.5751    3.2835    1.0689 O.2     1  UNL1       -0.2738
     29 N          -2.0125    1.2001    0.3385 N.am    1  UNL1       -0.3040
     30 C          -3.4334    0.7425    0.4340 C.3     1  UNL1        0.0847
     31 C          -3.5730   -0.2149   -0.6726 C.3     1  UNL1       -0.0247
     32 C          -4.8222   -0.8906   -1.0122 C.3     1  UNL1       -0.0390
     33 C          -5.5252   -1.7600   -0.0570 C.3     1  UNL1       -0.0501
     34 C          -6.3164   -2.8169   -0.8812 C.3     1  UNL1       -0.0528
     35 C          -5.2719   -3.8751   -1.2212 C.3     1  UNL1       -0.0530
     36 C          -4.0106   -3.1210   -1.6621 C.3     1  UNL1       -0.0528
     37 C          -4.4665   -1.8006   -2.2311 C.3     1  UNL1       -0.0501
     38 C          -3.5825    0.0403    1.7643 C.2     1  UNL1        0.1868
     39 O          -4.7202   -0.2223    2.1856 O.2     1  UNL1       -0.2923
     40 C          -2.4858   -0.3750    2.6357 C.3     1  UNL1        0.1492
     41 C          -2.7883   -0.5092    4.1139 C.3     1  UNL1       -0.0266
     42 C          -1.2236   -0.9630    2.1853 C.3     1  UNL1        0.0847
     43 O          -1.2591    0.3971    2.3451 O.3     1  UNL1       -0.3605
     44 C           0.4404    4.2982   -2.4655 C.ar    1  UNL1       -0.0550
     45 C           0.1299    4.4080   -3.7977 C.ar    1  UNL1       -0.0197
     46 H          -3.2959    4.2068   -6.4079 H       1  UNL1        0.0660
     47 H          -2.4809    5.7327   -7.0370 H       1  UNL1        0.0660
     48 H          -3.3291    5.7336   -5.4705 H       1  UNL1        0.0660
     49 H          -3.1298    5.1130   -3.5410 H       1  UNL1        0.0654
     50 H          -2.5401    4.9098   -1.1259 H       1  UNL1        0.0621
     51 H          -0.7520    5.0570    0.6074 H       1  UNL1        0.0336
     52 H           0.9200    4.7027    0.1590 H       1  UNL1        0.0336
     53 H           0.1825    3.0751    1.5959 H       1  UNL1        0.0598
     54 H           0.4338    1.7765   -1.1426 H       1  UNL1        0.1495
     55 H           1.8803   -0.3475   -0.7679 H       1  UNL1        0.0592
     56 H           3.9689    0.4622   -1.8610 H       1  UNL1        0.0252
     57 H           3.6067    2.0901   -1.0476 H       1  UNL1        0.0252
     58 H           2.3707    1.3373   -2.1811 H       1  UNL1        0.0252
     59 H           4.1277    0.4804    1.1128 H       1  UNL1        0.1498
     60 H           6.3143    0.2582    1.8318 H       1  UNL1        0.0278
     61 H           6.7674   -0.3575    3.4221 H       1  UNL1        0.0278
     62 H           5.0717    0.0339    3.1773 H       1  UNL1        0.0278
     63 H           7.9456   -2.0701    4.0642 H       1  UNL1        0.0624
     64 H           9.0368   -4.2542    4.5812 H       1  UNL1        0.0618
     65 H           8.2096   -6.3024    3.5201 H       1  UNL1        0.0618
     66 H           6.3030   -6.2003    1.9473 H       1  UNL1        0.0621
     67 H           4.0221   -4.2269    1.5536 H       1  UNL1        0.0363
     68 H           5.2511   -4.0019    0.2461 H       1  UNL1        0.0363
     69 H          -1.2956    0.5269    0.0162 H       1  UNL1        0.1494
     70 H          -4.1284    1.5915    0.4024 H       1  UNL1        0.0578
     71 H          -2.7422   -0.9904   -0.5541 H       1  UNL1        0.0290
     72 H          -3.2217    0.2884   -1.6489 H       1  UNL1        0.0290
     73 H          -5.5748   -0.1681   -1.4638 H       1  UNL1        0.0301
     74 H          -4.9452   -2.3592    0.6342 H       1  UNL1        0.0268
     75 H          -6.3701   -1.1735    0.4068 H       1  UNL1        0.0268
     76 H          -6.7936   -2.3773   -1.7510 H       1  UNL1        0.0265
     77 H          -7.0676   -3.3044   -0.2293 H       1  UNL1        0.0265
     78 H          -5.0405   -4.4364   -0.2960 H       1  UNL1        0.0265
     79 H          -5.6032   -4.5791   -1.9869 H       1  UNL1        0.0265
     80 H          -3.3292   -2.9513   -0.8243 H       1  UNL1        0.0265
     81 H          -3.4731   -3.7183   -2.4317 H       1  UNL1        0.0265
     82 H          -3.5900   -1.3609   -2.7471 H       1  UNL1        0.0268
     83 H          -5.2710   -1.8536   -2.9497 H       1  UNL1        0.0268
     84 H          -2.1126    0.1635    4.6835 H       1  UNL1        0.0262
     85 H          -2.5907   -1.5864    4.3828 H       1  UNL1        0.0262
     86 H          -3.8437   -0.3126    4.3094 H       1  UNL1        0.0262
     87 H          -0.6078   -1.4781    2.9660 H       1  UNL1        0.0593
     88 H          -1.1094   -1.4663    1.2117 H       1  UNL1        0.0593
     89 H           1.4652    4.0635   -2.1453 H       1  UNL1        0.0621
     90 H           0.8603    4.2714   -4.5845 H       1  UNL1        0.0654
@<TRIPOS>BOND
     1     1     2    1
     2     2     3    1
     3     3     4   ar
     4     4     5   ar
     5     5     6   ar
     6     6     7    1
     7     7     8    1
     8     8     9    1
     9     9    10   am
    10    10    11    2
    11    10    12    1
    12    12    13    1
    13    12    14    1
    14    14    15   am
    15    15    16    2
    16    15    17    1
    17    17    18    2
    18    18    19    1
    19    18    20    1
    20    20    21   ar
    21    21    22   ar
    22    22    23   ar
    23    23    24   ar
    24    24    25   ar
    25    25    26    1
    26     8    27    1
    27    27    28    2
    28    27    29   am
    29    29    30    1
    30    30    31    1
    31    31    32    1
    32    32    33    1
    33    33    34    1
    34    34    35    1
    35    35    36    1
    36    36    37    1
    37    30    38    1
    38    38    39    2
    39    38    40    1
    40    40    41    1
    41    40    42    1
    42    42    43    1
    43     6    44   ar
    44    44    45   ar
    45    45     3   ar
    46    26    17    1
    47    37    32    1
    48    43    40    1
    49    25    20   ar
    50     1    46    1
    51     1    47    1
    52     1    48    1
    53     4    49    1
    54     5    50    1
    55     7    51    1
    56     7    52    1
    57     8    53    1
    58     9    54    1
    59    12    55    1
    60    13    56    1
    61    13    57    1
    62    13    58    1
    63    14    59    1
    64    19    60    1
    65    19    61    1
    66    19    62    1
    67    21    63    1
    68    22    64    1
    69    23    65    1
    70    24    66    1
    71    26    67    1
    72    26    68    1
    73    29    69    1
    74    30    70    1
    75    31    71    1
    76    31    72    1
    77    32    73    1
    78    33    74    1
    79    33    75    1
    80    34    76    1
    81    34    77    1
    82    35    78    1
    83    35    79    1
    84    36    80    1
    85    36    81    1
    86    37    82    1
    87    37    83    1
    88    41    84    1
    89    41    85    1
    90    41    86    1
    91    42    87    1
    92    42    88    1
    93    44    89    1
    94    45    90    1
