@<TRIPOS>MOLECULE
*****
 41 44 0 0 0
SMALL
GASTEIGER

@<TRIPOS>ATOM
      1 C           7.4565    0.3163    0.3781 C.3     1  UNL1        0.0788
      2 O           6.6326   -0.1603   -0.6495 O.3     1  UNL1       -0.4951
      3 C           5.2520   -0.2057   -0.4666 C.ar    1  UNL1        0.1202
      4 C           4.6427    0.2017    0.6954 C.ar    1  UNL1       -0.0180
      5 C           3.2707    0.1483    0.8565 C.ar    1  UNL1       -0.0343
      6 C           2.4558   -0.3193   -0.1506 C.ar    1  UNL1        0.0511
      7 N           1.0696   -0.3504    0.0699 N.ar    1  UNL1       -0.2666
      8 C           0.1937    0.2642   -0.7389 C.ar    1  UNL1        0.1039
      9 N          -1.0996    0.2338   -0.5313 N.ar    1  UNL1       -0.2353
     10 C          -1.7259   -0.4111    0.5113 C.ar    1  UNL1        0.0960
     11 C          -0.8190   -1.0440    1.3440 C.ar    1  UNL1        0.1050
     12 S          -1.7998   -1.7711    2.5635 S.2     1  UNL1       -0.0617
     13 C          -3.4145   -1.2004    1.9167 C.ar    1  UNL1        0.1127
     14 N          -4.6613   -1.3944    2.3783 N.ar    1  UNL1       -0.2476
     15 C          -5.7084   -0.8552    1.7135 C.ar    1  UNL1        0.0306
     16 C          -5.3873   -0.1344    0.5884 C.ar    1  UNL1       -0.0218
     17 C          -4.1194    0.0634    0.1176 C.ar    1  UNL1        0.0425
     18 N          -3.9615    0.8114   -1.0603 N.pl3   1  UNL1       -0.3354
     19 C          -3.4798    0.1471   -2.2543 C.3     1  UNL1        0.0004
     20 C          -4.2513    2.2260   -1.1680 C.3     1  UNL1        0.0004
     21 C          -3.0293   -0.5060    0.8231 C.ar    1  UNL1        0.0548
     22 C           0.5553   -1.0070    1.1160 C.ar    1  UNL1        0.2728
     23 O           1.2617   -1.6286    1.9566 O.2     1  UNL1       -0.2660
     24 C           3.0515   -0.7329   -1.3254 C.ar    1  UNL1       -0.0343
     25 C           4.4223   -0.6747   -1.4738 C.ar    1  UNL1       -0.0180
     26 H           7.0632    1.2336    0.8611 H       1  UNL1        0.0660
     27 H           8.4631    0.5185   -0.0816 H       1  UNL1        0.0660
     28 H           7.6610   -0.4965    1.1329 H       1  UNL1        0.0660
     29 H           5.2418    0.5712    1.5008 H       1  UNL1        0.0655
     30 H           2.8451    0.4823    1.7931 H       1  UNL1        0.0639
     31 H           0.5513    0.8261   -1.6236 H       1  UNL1        0.1033
     32 H          -6.7056   -1.0032    2.0726 H       1  UNL1        0.0830
     33 H          -6.2460    0.2989    0.0565 H       1  UNL1        0.0651
     34 H          -4.3707    0.0077   -2.9274 H       1  UNL1        0.0428
     35 H          -3.1125   -0.8838   -2.0778 H       1  UNL1        0.0428
     36 H          -2.6757    0.7038   -2.7650 H       1  UNL1        0.0428
     37 H          -5.1040    2.4313   -1.8571 H       1  UNL1        0.0428
     38 H          -3.3556    2.6902   -1.6611 H       1  UNL1        0.0428
     39 H          -4.4216    2.6994   -0.1871 H       1  UNL1        0.0428
     40 H           2.4401   -1.1033   -2.1303 H       1  UNL1        0.0639
     41 H           4.9187   -0.9925   -2.3847 H       1  UNL1        0.0655
@<TRIPOS>BOND
     1     1     2    1
     2     2     3    1
     3     3     4   ar
     4     4     5   ar
     5     5     6   ar
     6     6     7    1
     7     7     8   ar
     8     8     9   ar
     9     9    10   ar
    10    10    11   ar
    11    11    12   ar
    12    12    13   ar
    13    13    14   ar
    14    14    15   ar
    15    15    16   ar
    16    16    17   ar
    17    17    18    1
    18    18    19    1
    19    18    20    1
    20    17    21   ar
    21    11    22   ar
    22    22    23    2
    23     6    24   ar
    24    24    25   ar
    25    25     3   ar
    26    22     7   ar
    27    21    10   ar
    28    21    13   ar
    29     1    26    1
    30     1    27    1
    31     1    28    1
    32     4    29    1
    33     5    30    1
    34     8    31    1
    35    15    32    1
    36    16    33    1
    37    19    34    1
    38    19    35    1
    39    19    36    1
    40    20    37    1
    41    20    38    1
    42    20    39    1
    43    24    40    1
    44    25    41    1
