@<TRIPOS>MOLECULE
*****
 12 12 0 0 0
SMALL
GASTEIGER

@<TRIPOS>ATOM
      1 O          -2.1024   -1.4282    0.0942 O.2     1  UNL1       -0.2467
      2 C          -1.0709   -0.6966    0.0472 C.ar    1  UNL1        0.3267
      3 N          -1.2535    0.6342    0.0184 N.ar    1  UNL1       -0.3143
      4 C          -0.1397    1.3856   -0.0314 C.ar    1  UNL1        0.0115
      5 C           1.1155    0.7757   -0.0504 C.ar    1  UNL1        0.0189
      6 C           1.2352   -0.6152   -0.0184 C.ar    1  UNL1        0.2539
      7 O           2.3677   -1.1629   -0.0357 O.2     1  UNL1       -0.2677
      8 N           0.1081   -1.3565    0.0315 N.ar    1  UNL1       -0.2751
      9 H          -2.2188    1.0301    0.0349 H       1  UNL1        0.1698
     10 H          -0.2067    2.4537   -0.0566 H       1  UNL1        0.0810
     11 H           2.0173    1.3660   -0.0903 H       1  UNL1        0.0686
     12 H           0.1483   -2.3858    0.0565 H       1  UNL1        0.1734
@<TRIPOS>BOND
     1     1     2    2
     2     2     3   ar
     3     3     4   ar
     4     4     5   ar
     5     5     6   ar
     6     6     7    2
     7     6     8   ar
     8     8     2   ar
     9     3     9    1
    10     4    10    1
    11     5    11    1
    12     8    12    1
