@<TRIPOS>MOLECULE
*****
 30 32 0 0 0
SMALL
GASTEIGER

@<TRIPOS>ATOM
      1 O          -6.0300   -0.8904    0.8463 O.2     1  UNL1       -0.2449
      2 C          -5.2119   -0.4168   -0.0013 C.2     1  UNL1        0.3399
      3 O          -5.5282    0.1409   -1.2101 O.3     1  UNL1       -0.4564
      4 C          -4.3636    0.5587   -1.8847 C.3     1  UNL1        0.1187
      5 C          -3.2627    0.1933   -0.9454 C.ar    1  UNL1        0.0071
      6 C          -1.8765    0.3394   -1.0202 C.ar    1  UNL1       -0.0127
      7 C          -1.0242   -0.0744   -0.0217 C.ar    1  UNL1        0.1214
      8 O           0.3537    0.1084   -0.1737 O.3     1  UNL1       -0.4874
      9 C           1.2504   -0.3084    0.8385 C.3     1  UNL1        0.1146
     10 C           2.6582   -0.0175    0.4669 C.ar    1  UNL1       -0.0104
     11 C           3.2602    1.1900    0.7994 C.ar    1  UNL1       -0.0554
     12 C           4.5687    1.4685    0.4577 C.ar    1  UNL1       -0.0614
     13 C           5.2945    0.5144   -0.2348 C.ar    1  UNL1       -0.0617
     14 C           4.7331   -0.6980   -0.5841 C.ar    1  UNL1       -0.0614
     15 C           3.4352   -0.9271   -0.2237 C.ar    1  UNL1       -0.0554
     16 C          -1.5722   -0.6529    1.0880 C.ar    1  UNL1       -0.0191
     17 C          -2.9321   -0.8278    1.2266 C.ar    1  UNL1       -0.0439
     18 C          -3.7684   -0.3960    0.1934 C.ar    1  UNL1        0.0656
     19 H          -4.2411    0.0405   -2.8580 H       1  UNL1        0.0749
     20 H          -4.4321    1.6598   -2.0156 H       1  UNL1        0.0749
     21 H          -1.4554    0.7950   -1.8957 H       1  UNL1        0.0658
     22 H           0.9796    0.1230    1.8312 H       1  UNL1        0.0748
     23 H           1.1326   -1.4085    0.9475 H       1  UNL1        0.0748
     24 H           2.6928    1.9490    1.3468 H       1  UNL1        0.0621
     25 H           5.0156    2.4219    0.7304 H       1  UNL1        0.0618
     26 H           6.3271    0.7228   -0.5096 H       1  UNL1        0.0618
     27 H           5.2950   -1.4420   -1.1226 H       1  UNL1        0.0618
     28 H           3.0090   -1.8933   -0.5096 H       1  UNL1        0.0621
     29 H          -0.9319   -0.9879    1.8881 H       1  UNL1        0.0654
     30 H          -3.3756   -1.2846    2.1010 H       1  UNL1        0.0627
@<TRIPOS>BOND
     1     1     2    2
     2     2     3    1
     3     3     4    1
     4     4     5    1
     5     5     6   ar
     6     6     7   ar
     7     7     8    1
     8     8     9    1
     9     9    10    1
    10    10    11   ar
    11    11    12   ar
    12    12    13   ar
    13    13    14   ar
    14    14    15   ar
    15     7    16   ar
    16    16    17   ar
    17    17    18   ar
    18    18     2    1
    19    18     5   ar
    20    15    10   ar
    21     4    19    1
    22     4    20    1
    23     6    21    1
    24     9    22    1
    25     9    23    1
    26    11    24    1
    27    12    25    1
    28    13    26    1
    29    14    27    1
    30    15    28    1
    31    16    29    1
    32    17    30    1
