
     RDKit          3D

 46 49  0  0  0  0  0  0  0  0999 V2000
   -4.3843    1.7756    0.7298 C   0  0  0  0  0  0  0  0  0  0  0  0
   -2.9369    1.5196    0.2969 C   0  0  0  0  0  0  0  0  0  0  0  0
   -2.7431    1.7202   -1.1642 C   0  0  0  0  0  0  0  0  0  0  0  0
   -2.4665    0.1746    0.8162 C   0  0  2  0  0  0  0  0  0  0  0  0
   -2.5846    0.3041    2.2283 O   0  0  0  0  0  0  0  0  0  0  0  0
   -1.0437    0.0507    0.5401 C   0  0  0  0  0  0  0  0  0  0  0  0
   -0.1704    0.7823    1.3316 C   0  0  0  0  0  0  0  0  0  0  0  0
    1.1973    0.7402    1.1609 C   0  0  0  0  0  0  0  0  0  0  0  0
    1.7178   -0.0555    0.1707 C   0  0  0  0  0  0  0  0  0  0  0  0
    3.0876   -0.1071   -0.0129 C   0  0  0  0  0  0  0  0  0  0  0  0
    3.6553   -0.8931   -0.9971 C   0  0  0  0  0  0  0  0  0  0  0  0
    2.7947   -1.6218   -1.7849 C   0  0  0  0  0  0  0  0  0  0  0  0
    1.4247   -1.5844   -1.6182 C   0  0  0  0  0  0  0  0  0  0  0  0
    0.8799   -0.7849   -0.6205 C   0  0  0  0  0  0  0  0  0  0  0  0
   -0.4693   -0.7279   -0.4339 C   0  0  0  0  0  0  0  0  0  0  0  0
    5.0901   -0.7008   -0.9113 C   0  0  0  0  0  0  0  0  0  0  0  0
    5.9242   -1.2667   -1.6604 O   0  0  0  0  0  0  0  0  0  0  0  0
    5.3826    0.2054    0.1286 N   0  0  0  0  0  0  0  0  0  0  0  0
    6.7037    0.6699    0.5224 C   0  0  0  0  0  0  0  0  0  0  0  0
    4.1542    0.6040    0.7420 C   0  0  0  0  0  0  0  0  0  0  0  0
   -3.3074   -0.9568    0.4165 C   0  0  0  0  0  0  0  0  0  0  0  0
   -3.9012   -1.8514    1.2829 C   0  0  0  0  0  0  0  0  0  0  0  0
   -4.6050   -2.7734    0.6049 N   0  0  0  0  0  0  0  0  0  0  0  0
   -4.4334   -2.4309   -0.6848 C   0  0  0  0  0  0  0  0  0  0  0  0
   -3.6665   -1.3552   -0.8240 N   0  0  0  0  0  0  0  0  0  0  0  0
   -4.9605    0.8276    0.7400 H   0  0  0  0  0  0  0  0  0  0  0  0
   -4.8186    2.5317    0.0674 H   0  0  0  0  0  0  0  0  0  0  0  0
   -4.3670    2.1339    1.7743 H   0  0  0  0  0  0  0  0  0  0  0  0
   -2.3456    2.3258    0.8272 H   0  0  0  0  0  0  0  0  0  0  0  0
   -2.5267    2.8181   -1.3325 H   0  0  0  0  0  0  0  0  0  0  0  0
   -3.6703    1.4930   -1.7295 H   0  0  0  0  0  0  0  0  0  0  0  0
   -1.8491    1.1904   -1.4952 H   0  0  0  0  0  0  0  0  0  0  0  0
   -2.1102   -0.5095    2.5859 H   0  0  0  0  0  0  0  0  0  0  0  0
   -0.5304    1.4275    2.1282 H   0  0  0  0  0  0  0  0  0  0  0  0
    1.8459    1.3310    1.8036 H   0  0  0  0  0  0  0  0  0  0  0  0
    3.2243   -2.2440   -2.5592 H   0  0  0  0  0  0  0  0  0  0  0  0
    0.7594   -2.1500   -2.2305 H   0  0  0  0  0  0  0  0  0  0  0  0
   -1.1085   -1.3058   -1.0626 H   0  0  0  0  0  0  0  0  0  0  0  0
    6.6136    1.4768    1.2762 H   0  0  0  0  0  0  0  0  0  0  0  0
    7.2921    1.0290   -0.3477 H   0  0  0  0  0  0  0  0  0  0  0  0
    7.2580   -0.1536    1.0235 H   0  0  0  0  0  0  0  0  0  0  0  0
    4.0144    1.7116    0.6388 H   0  0  0  0  0  0  0  0  0  0  0  0
    4.0714    0.3464    1.8187 H   0  0  0  0  0  0  0  0  0  0  0  0
   -3.8453   -1.8624    2.3794 H   0  0  0  0  0  0  0  0  0  0  0  0
   -4.8800   -2.9844   -1.4995 H   0  0  0  0  0  0  0  0  0  0  0  0
   -3.3667   -0.8697   -1.7062 H   0  0  0  0  0  0  0  0  0  0  0  0
  1  2  1  0
  2  3  1  0
  2  4  1  0
  4  5  1  1
  4  6  1  0
  6  7  2  0
  7  8  1  0
  8  9  2  0
  9 10  1  0
 10 11  2  0
 11 12  1  0
 12 13  2  0
 13 14  1  0
 14 15  2  0
 11 16  1  0
 16 17  2  0
 16 18  1  0
 18 19  1  0
 18 20  1  0
  4 21  1  0
 21 22  2  0
 22 23  1  0
 23 24  2  0
 24 25  1  0
 15  6  1  0
 25 21  1  0
 14  9  1  0
 20 10  1  0
  1 26  1  0
  1 27  1  0
  1 28  1  0
  2 29  1  0
  3 30  1  0
  3 31  1  0
  3 32  1  0
  5 33  1  0
  7 34  1  0
  8 35  1  0
 12 36  1  0
 13 37  1  0
 15 38  1  0
 19 39  1  0
 19 40  1  0
 19 41  1  0
 20 42  1  0
 20 43  1  0
 22 44  1  0
 24 45  1  0
 25 46  1  0
M  END
$$$$
