@<TRIPOS>MOLECULE
*****
 46 49 0 0 0
SMALL
GASTEIGER

@<TRIPOS>ATOM
      1 C          -4.3843    1.7756    0.7298 C.3     1  UNL1       -0.0594
      2 C          -2.9369    1.5196    0.2969 C.3     1  UNL1       -0.0080
      3 C          -2.7431    1.7202   -1.1642 C.3     1  UNL1       -0.0594
      4 C          -2.4665    0.1746    0.8162 C.3     1  UNL1        0.1342
      5 O          -2.5846    0.3041    2.2283 O.3     1  UNL1       -0.3775
      6 C          -1.0437    0.0507    0.5401 C.ar    1  UNL1       -0.0095
      7 C          -0.1704    0.7823    1.3316 C.ar    1  UNL1       -0.0549
      8 C           1.1973    0.7402    1.1609 C.ar    1  UNL1       -0.0533
      9 C           1.7178   -0.0555    0.1707 C.ar    1  UNL1       -0.0125
     10 C           3.0876   -0.1071   -0.0129 C.ar    1  UNL1       -0.0103
     11 C           3.6553   -0.8931   -0.9971 C.ar    1  UNL1        0.0422
     12 C           2.7947   -1.6218   -1.7849 C.ar    1  UNL1       -0.0487
     13 C           1.4247   -1.5844   -1.6182 C.ar    1  UNL1       -0.0533
     14 C           0.8799   -0.7849   -0.6205 C.ar    1  UNL1       -0.0172
     15 C          -0.4693   -0.7279   -0.4339 C.ar    1  UNL1       -0.0477
     16 C           5.0901   -0.7008   -0.9113 C.2     1  UNL1        0.2470
     17 O           5.9242   -1.2667   -1.6604 O.2     1  UNL1       -0.2700
     18 N           5.3826    0.2054    0.1286 N.am    1  UNL1       -0.2962
     19 C           6.7037    0.6699    0.5224 C.3     1  UNL1        0.0038
     20 C           4.1542    0.6040    0.7420 C.3     1  UNL1        0.0410
     21 C          -3.3074   -0.9568    0.4165 C.ar    1  UNL1        0.0721
     22 C          -3.9012   -1.8514    1.2829 C.ar    1  UNL1        0.0516
     23 N          -4.6050   -2.7734    0.6049 N.ar    1  UNL1       -0.2439
     24 C          -4.4334   -2.4309   -0.6848 C.ar    1  UNL1        0.0936
     25 N          -3.6665   -1.3552   -0.8240 N.ar    1  UNL1       -0.3457
     26 H          -4.9605    0.8276    0.7400 H       1  UNL1        0.0233
     27 H          -4.8186    2.5317    0.0674 H       1  UNL1        0.0233
     28 H          -4.3670    2.1339    1.7743 H       1  UNL1        0.0233
     29 H          -2.3456    2.3258    0.8272 H       1  UNL1        0.0330
     30 H          -2.5267    2.8181   -1.3325 H       1  UNL1        0.0233
     31 H          -3.6703    1.4930   -1.7295 H       1  UNL1        0.0233
     32 H          -1.8491    1.1904   -1.4952 H       1  UNL1        0.0233
     33 H          -2.1102   -0.5095    2.5859 H       1  UNL1        0.2112
     34 H          -0.5304    1.4275    2.1282 H       1  UNL1        0.0621
     35 H           1.8459    1.3310    1.8036 H       1  UNL1        0.0624
     36 H           3.2243   -2.2440   -2.5592 H       1  UNL1        0.0625
     37 H           0.7594   -2.1500   -2.2305 H       1  UNL1        0.0624
     38 H          -1.1085   -1.3058   -1.0626 H       1  UNL1        0.0627
     39 H           6.6136    1.4768    1.2762 H       1  UNL1        0.0429
     40 H           7.2921    1.0290   -0.3477 H       1  UNL1        0.0429
     41 H           7.2580   -0.1536    1.0235 H       1  UNL1        0.0429
     42 H           4.0144    1.7116    0.6388 H       1  UNL1        0.0514
     43 H           4.0714    0.3464    1.8187 H       1  UNL1        0.0514
     44 H          -3.8453   -1.8624    2.3794 H       1  UNL1        0.0849
     45 H          -4.8800   -2.9844   -1.4995 H       1  UNL1        0.1027
     46 H          -3.3667   -0.8697   -1.7062 H       1  UNL1        0.1666
@<TRIPOS>BOND
     1     1     2    1
     2     2     3    1
     3     2     4    1
     4     4     5    1
     5     4     6    1
     6     6     7   ar
     7     7     8   ar
     8     8     9   ar
     9     9    10   ar
    10    10    11   ar
    11    11    12   ar
    12    12    13   ar
    13    13    14   ar
    14    14    15   ar
    15    11    16    1
    16    16    17    2
    17    16    18   am
    18    18    19    1
    19    18    20    1
    20     4    21    1
    21    21    22   ar
    22    22    23   ar
    23    23    24   ar
    24    24    25   ar
    25    15     6   ar
    26    25    21   ar
    27    14     9   ar
    28    20    10    1
    29     1    26    1
    30     1    27    1
    31     1    28    1
    32     2    29    1
    33     3    30    1
    34     3    31    1
    35     3    32    1
    36     5    33    1
    37     7    34    1
    38     8    35    1
    39    12    36    1
    40    13    37    1
    41    15    38    1
    42    19    39    1
    43    19    40    1
    44    19    41    1
    45    20    42    1
    46    20    43    1
    47    22    44    1
    48    24    45    1
    49    25    46    1
