@<TRIPOS>MOLECULE
*****
 44 48 0 0 0
SMALL
GASTEIGER

@<TRIPOS>ATOM
      1 O           5.9746   -3.0722   -0.1109 O.2     1  UNL1       -0.2698
      2 C           5.6765   -1.8521   -0.1299 C.2     1  UNL1        0.2489
      3 N           6.5622   -0.7573   -0.2078 N.am    1  UNL1       -0.2809
      4 C           5.7739    0.4183   -0.2006 C.ar    1  UNL1        0.0416
      5 C           6.1799    1.7376   -0.2747 C.ar    1  UNL1       -0.0399
      6 C           5.2301    2.7305   -0.2727 C.ar    1  UNL1       -0.0600
      7 C           3.8882    2.4461   -0.1990 C.ar    1  UNL1       -0.0611
      8 C           3.4792    1.1083   -0.1234 C.ar    1  UNL1       -0.0521
      9 C           4.4091    0.1114   -0.1215 C.ar    1  UNL1        0.0083
     10 C           4.3113   -1.3314   -0.0727 C.2     1  UNL1        0.0465
     11 C           3.2044   -2.0259   -0.0310 C.2     1  UNL1       -0.0418
     12 C           1.8553   -1.5224    0.0377 C.ar    1  UNL1       -0.0223
     13 C           0.9241   -1.6749   -0.9935 C.ar    1  UNL1       -0.0538
     14 C          -0.3881   -1.2725   -0.8520 C.ar    1  UNL1       -0.0499
     15 C          -0.8093   -0.7052    0.3255 C.ar    1  UNL1        0.0268
     16 C          -2.0497   -0.2144    0.7389 C.ar    1  UNL1        0.0931
     17 C          -3.2840   -0.2065   -0.0450 C.2     1  UNL1       -0.0334
     18 C          -4.3693    0.3092    0.4732 C.2     1  UNL1       -0.0524
     19 C          -5.6489    0.3842   -0.1753 C.ar    1  UNL1       -0.0221
     20 C          -5.8918   -0.0954   -1.4302 C.ar    1  UNL1       -0.0364
     21 C          -7.1700    0.0225   -1.9697 C.ar    1  UNL1        0.0281
     22 N          -8.1783    0.6008   -1.2839 N.ar    1  UNL1       -0.2632
     23 C          -7.9806    1.0847   -0.0491 C.ar    1  UNL1        0.0281
     24 C          -6.7081    0.9697    0.4946 C.ar    1  UNL1       -0.0364
     25 N          -1.8321    0.2160    1.9931 N.ar    1  UNL1       -0.1733
     26 N          -0.5834    0.0272    2.3633 N.ar    1  UNL1       -0.2764
     27 C           0.0836   -0.5478    1.3427 C.ar    1  UNL1        0.0669
     28 C           1.3934   -0.9476    1.2068 C.ar    1  UNL1       -0.0291
     29 H           7.6227   -0.8324   -0.2603 H       1  UNL1        0.1552
     30 H           7.2323    1.9603   -0.3336 H       1  UNL1        0.0636
     31 H           5.5574    3.7615   -0.3309 H       1  UNL1        0.0618
     32 H           3.1654    3.2460   -0.2009 H       1  UNL1        0.0618
     33 H           2.4419    0.9659   -0.1002 H       1  UNL1        0.0624
     34 H           3.3565   -3.1331   -0.0558 H       1  UNL1        0.0631
     35 H           1.2626   -2.1221   -1.9218 H       1  UNL1        0.0624
     36 H          -1.1260   -1.3878   -1.6560 H       1  UNL1        0.0625
     37 H          -3.3239   -0.6118   -1.0369 H       1  UNL1        0.0640
     38 H          -4.2607    0.7109    1.4967 H       1  UNL1        0.0624
     39 H          -5.1085   -0.5628   -2.0091 H       1  UNL1        0.0639
     40 H          -7.3966   -0.3459   -2.9546 H       1  UNL1        0.0830
     41 H          -8.7712    1.5556    0.5285 H       1  UNL1        0.0830
     42 H          -6.5594    1.3681    1.5006 H       1  UNL1        0.0639
     43 H          -0.2076    0.2893    3.2930 H       1  UNL1        0.1889
     44 H           2.0628   -0.8025    2.0373 H       1  UNL1        0.0645
@<TRIPOS>BOND
     1     1     2    2
     2     2     3   am
     3     3     4    1
     4     4     5   ar
     5     5     6   ar
     6     6     7   ar
     7     7     8   ar
     8     8     9   ar
     9     9    10    1
    10    10    11    2
    11    11    12    1
    12    12    13   ar
    13    13    14   ar
    14    14    15   ar
    15    15    16   ar
    16    16    17    1
    17    17    18    2
    18    18    19    1
    19    19    20   ar
    20    20    21   ar
    21    21    22   ar
    22    22    23   ar
    23    23    24   ar
    24    16    25   ar
    25    25    26   ar
    26    26    27   ar
    27    27    28   ar
    28    10     2    1
    29    28    12   ar
    30     9     4   ar
    31    27    15   ar
    32    24    19   ar
    33     3    29    1
    34     5    30    1
    35     6    31    1
    36     7    32    1
    37     8    33    1
    38    11    34    1
    39    13    35    1
    40    14    36    1
    41    17    37    1
    42    18    38    1
    43    20    39    1
    44    21    40    1
    45    23    41    1
    46    24    42    1
    47    26    43    1
    48    28    44    1
