
     RDKit          3D

 56 60  0  0  0  0  0  0  0  0999 V2000
    8.0222    0.8282    0.2256 C   0  0  0  0  0  0  0  0  0  0  0  0
    7.4399    1.1982   -1.1147 C   0  0  0  0  0  0  0  0  0  0  0  0
    6.0478    1.5309   -1.0116 O   0  0  0  0  0  0  0  0  0  0  0  0
    5.1435    0.5794   -0.5324 C   0  0  0  0  0  0  0  0  0  0  0  0
    5.6196   -0.5308   -0.2160 O   0  0  0  0  0  0  0  0  0  0  0  0
    3.7658    0.8257   -0.4010 N   0  0  0  0  0  0  0  0  0  0  0  0
    2.8399   -0.1326    0.0840 C   0  0  0  0  0  0  0  0  0  0  0  0
    3.0396   -1.4266    0.5090 C   0  0  0  0  0  0  0  0  0  0  0  0
    1.8234   -1.8992    0.8687 N   0  0  0  0  0  0  0  0  0  0  0  0
    1.6794   -3.2720    1.3760 C   0  0  0  0  0  0  0  0  0  0  0  0
    0.8738   -0.9952    0.7003 C   0  0  0  0  0  0  0  0  0  0  0  0
    1.4678    0.1348    0.2073 C   0  0  0  0  0  0  0  0  0  0  0  0
    0.4038    1.1137    0.0307 C   0  0  0  0  0  0  0  0  0  0  0  0
    0.6234    2.2864   -0.4179 O   0  0  0  0  0  0  0  0  0  0  0  0
   -0.8415    0.5513    0.4268 N   0  0  0  0  0  0  0  0  0  0  0  0
   -2.0853    1.2410    0.3807 C   0  0  0  0  0  0  0  0  0  0  0  0
   -2.5628    1.9836    1.4400 C   0  0  0  0  0  0  0  0  0  0  0  0
   -3.7638    2.6593    1.4172 C   0  0  0  0  0  0  0  0  0  0  0  0
   -4.1898    3.4325    2.6120 C   0  0  0  0  0  0  0  0  0  0  0  0
   -4.5121    2.5833    0.2827 C   0  0  0  0  0  0  0  0  0  0  0  0
   -5.6915    3.0983   -0.0745 N   0  0  0  0  0  0  0  0  0  0  0  0
   -5.9597    2.7020   -1.3129 N   0  0  0  0  0  0  0  0  0  0  0  0
   -4.9812    1.9454   -1.7590 N   0  0  0  0  0  0  0  0  0  0  0  0
   -4.8756    1.3082   -3.0597 C   0  0  0  0  0  0  0  0  0  0  0  0
   -4.0536    1.8462   -0.7888 C   0  0  0  0  0  0  0  0  0  0  0  0
   -2.8734    1.2045   -0.7162 N   0  0  0  0  0  0  0  0  0  0  0  0
   -0.5968   -0.7933    0.8624 C   0  0  0  0  0  0  0  0  0  0  0  0
   -1.3207   -1.8121    0.0625 C   0  0  0  0  0  0  0  0  0  0  0  0
   -1.9629   -2.8291    0.7371 C   0  0  0  0  0  0  0  0  0  0  0  0
   -2.6531   -3.8061    0.0519 C   0  0  0  0  0  0  0  0  0  0  0  0
   -2.6963   -3.7572   -1.3277 C   0  0  0  0  0  0  0  0  0  0  0  0
   -3.5917   -5.0304   -2.1482 Cl  0  0  0  0  0  0  0  0  0  0  0  0
   -2.0695   -2.7620   -2.0187 C   0  0  0  0  0  0  0  0  0  0  0  0
   -1.3836   -1.7940   -1.3012 C   0  0  0  0  0  0  0  0  0  0  0  0
    7.8779   -0.2506    0.3986 H   0  0  0  0  0  0  0  0  0  0  0  0
    9.1058    1.0959    0.1964 H   0  0  0  0  0  0  0  0  0  0  0  0
    7.5644    1.4607    1.0282 H   0  0  0  0  0  0  0  0  0  0  0  0
    7.4971    0.2812   -1.7597 H   0  0  0  0  0  0  0  0  0  0  0  0
    7.9847    1.9847   -1.6412 H   0  0  0  0  0  0  0  0  0  0  0  0
    3.4120    1.7853   -0.6836 H   0  0  0  0  0  0  0  0  0  0  0  0
    3.9854   -1.9443    0.5416 H   0  0  0  0  0  0  0  0  0  0  0  0
    0.6773   -3.4083    1.8315 H   0  0  0  0  0  0  0  0  0  0  0  0
    1.8845   -3.9766    0.5614 H   0  0  0  0  0  0  0  0  0  0  0  0
    2.4486   -3.4497    2.1619 H   0  0  0  0  0  0  0  0  0  0  0  0
   -1.9654    2.0388    2.3335 H   0  0  0  0  0  0  0  0  0  0  0  0
   -4.8046    4.3080    2.3146 H   0  0  0  0  0  0  0  0  0  0  0  0
   -3.3244    3.7750    3.2205 H   0  0  0  0  0  0  0  0  0  0  0  0
   -4.8591    2.7688    3.2122 H   0  0  0  0  0  0  0  0  0  0  0  0
   -3.8334    1.1260   -3.3595 H   0  0  0  0  0  0  0  0  0  0  0  0
   -5.4629    0.3578   -3.0686 H   0  0  0  0  0  0  0  0  0  0  0  0
   -5.3561    1.9770   -3.8107 H   0  0  0  0  0  0  0  0  0  0  0  0
   -0.8389   -0.8775    1.9407 H   0  0  0  0  0  0  0  0  0  0  0  0
   -1.9591   -2.9130    1.8271 H   0  0  0  0  0  0  0  0  0  0  0  0
   -3.1563   -4.6042    0.5953 H   0  0  0  0  0  0  0  0  0  0  0  0
   -2.1104   -2.7345   -3.0959 H   0  0  0  0  0  0  0  0  0  0  0  0
   -0.8920   -1.0126   -1.8526 H   0  0  0  0  0  0  0  0  0  0  0  0
  1  2  1  0
  2  3  1  0
  3  4  1  0
  4  5  2  0
  4  6  1  0
  6  7  1  0
  7  8  2  0
  8  9  1  0
  9 10  1  0
  9 11  1  0
 11 12  2  0
 12 13  1  0
 13 14  2  0
 13 15  1  0
 15 16  1  0
 16 17  2  0
 17 18  1  0
 18 19  1  0
 18 20  2  0
 20 21  1  0
 21 22  2  0
 22 23  1  0
 23 24  1  0
 23 25  1  0
 25 26  2  0
 15 27  1  0
 27 28  1  0
 28 29  2  0
 29 30  1  0
 30 31  2  0
 31 32  1  0
 31 33  1  0
 33 34  2  0
 12  7  1  0
 26 16  1  0
 34 28  1  0
 27 11  1  0
 25 20  1  0
  1 35  1  0
  1 36  1  0
  1 37  1  0
  2 38  1  0
  2 39  1  0
  6 40  1  0
  8 41  1  0
 10 42  1  0
 10 43  1  0
 10 44  1  0
 17 45  1  0
 19 46  1  0
 19 47  1  0
 19 48  1  0
 24 49  1  0
 24 50  1  0
 24 51  1  0
 27 52  1  0
 29 53  1  0
 30 54  1  0
 33 55  1  0
 34 56  1  0
M  END
$$$$
