@<TRIPOS>MOLECULE
*****
 56 60 0 0 0
SMALL
GASTEIGER

@<TRIPOS>ATOM
      1 C           8.0222    0.8282    0.2256 C.3     1  UNL1       -0.0305
      2 C           7.4399    1.1982   -1.1147 C.3     1  UNL1        0.0913
      3 O           6.0478    1.5309   -1.0116 O.3     1  UNL1       -0.4504
      4 C           5.1435    0.5794   -0.5324 C.2     1  UNL1        0.4046
      5 O           5.6196   -0.5308   -0.2160 O.2     1  UNL1       -0.2261
      6 N           3.7658    0.8257   -0.4010 N.am    1  UNL1       -0.2490
      7 C           2.8399   -0.1326    0.0840 C.ar    1  UNL1        0.0664
      8 C           3.0396   -1.4266    0.5090 C.ar    1  UNL1        0.0267
      9 N           1.8234   -1.8992    0.8687 N.ar    1  UNL1       -0.3492
     10 C           1.6794   -3.2720    1.3760 C.3     1  UNL1        0.0117
     11 C           0.8738   -0.9952    0.7003 C.ar    1  UNL1        0.0581
     12 C           1.4678    0.1348    0.2073 C.ar    1  UNL1        0.0814
     13 C           0.4038    1.1137    0.0307 C.2     1  UNL1        0.2563
     14 O           0.6234    2.2864   -0.4179 O.2     1  UNL1       -0.2694
     15 N          -0.8415    0.5513    0.4268 N.am    1  UNL1       -0.2387
     16 C          -2.0853    1.2410    0.3807 C.ar    1  UNL1        0.1313
     17 C          -2.5628    1.9836    1.4400 C.ar    1  UNL1       -0.0161
     18 C          -3.7638    2.6593    1.4172 C.ar    1  UNL1       -0.0164
     19 C          -4.1898    3.4325    2.6120 C.3     1  UNL1       -0.0374
     20 C          -4.5121    2.5833    0.2827 C.ar    1  UNL1        0.1345
     21 N          -5.6915    3.0983   -0.0745 N.ar    1  UNL1       -0.1276
     22 N          -5.9597    2.7020   -1.3129 N.ar    1  UNL1       -0.0635
     23 N          -4.9812    1.9454   -1.7590 N.ar    1  UNL1       -0.2297
     24 C          -4.8756    1.3082   -3.0597 C.3     1  UNL1        0.0341
     25 C          -4.0536    1.8462   -0.7888 C.ar    1  UNL1        0.1803
     26 N          -2.8734    1.2045   -0.7162 N.ar    1  UNL1       -0.2108
     27 C          -0.5968   -0.7933    0.8624 C.3     1  UNL1        0.0986
     28 C          -1.3207   -1.8121    0.0625 C.ar    1  UNL1       -0.0207
     29 C          -1.9629   -2.8291    0.7371 C.ar    1  UNL1       -0.0550
     30 C          -2.6531   -3.8061    0.0519 C.ar    1  UNL1       -0.0431
     31 C          -2.6963   -3.7572   -1.3277 C.ar    1  UNL1        0.0410
     32 CL         -3.5917   -5.0304   -2.1482 Cl      1  UNL1       -0.0835
     33 C          -2.0695   -2.7620   -2.0187 C.ar    1  UNL1       -0.0431
     34 C          -1.3836   -1.7940   -1.3012 C.ar    1  UNL1       -0.0550
     35 H           7.8779   -0.2506    0.3986 H       1  UNL1        0.0262
     36 H           9.1058    1.0959    0.1964 H       1  UNL1        0.0262
     37 H           7.5644    1.4607    1.0282 H       1  UNL1        0.0262
     38 H           7.4971    0.2812   -1.7597 H       1  UNL1        0.0695
     39 H           7.9847    1.9847   -1.6412 H       1  UNL1        0.0695
     40 H           3.4120    1.7853   -0.6836 H       1  UNL1        0.1582
     41 H           3.9854   -1.9443    0.5416 H       1  UNL1        0.0828
     42 H           0.6773   -3.4083    1.8315 H       1  UNL1        0.0456
     43 H           1.8845   -3.9766    0.5614 H       1  UNL1        0.0456
     44 H           2.4486   -3.4497    2.1619 H       1  UNL1        0.0456
     45 H          -1.9654    2.0388    2.3335 H       1  UNL1        0.0655
     46 H          -4.8046    4.3080    2.3146 H       1  UNL1        0.0278
     47 H          -3.3244    3.7750    3.2205 H       1  UNL1        0.0278
     48 H          -4.8591    2.7688    3.2122 H       1  UNL1        0.0278
     49 H          -3.8334    1.1260   -3.3595 H       1  UNL1        0.0474
     50 H          -5.4629    0.3578   -3.0686 H       1  UNL1        0.0474
     51 H          -5.3561    1.9770   -3.8107 H       1  UNL1        0.0474
     52 H          -0.8389   -0.8775    1.9407 H       1  UNL1        0.0620
     53 H          -1.9591   -2.9130    1.8271 H       1  UNL1        0.0621
     54 H          -3.1563   -4.6042    0.5953 H       1  UNL1        0.0632
     55 H          -2.1104   -2.7345   -3.0959 H       1  UNL1        0.0632
     56 H          -0.8920   -1.0126   -1.8526 H       1  UNL1        0.0621
@<TRIPOS>BOND
     1     1     2    1
     2     2     3    1
     3     3     4    1
     4     4     5    2
     5     4     6   am
     6     6     7    1
     7     7     8   ar
     8     8     9   ar
     9     9    10    1
    10     9    11   ar
    11    11    12   ar
    12    12    13    1
    13    13    14    2
    14    13    15   am
    15    15    16    1
    16    16    17   ar
    17    17    18   ar
    18    18    19    1
    19    18    20   ar
    20    20    21   ar
    21    21    22   ar
    22    22    23   ar
    23    23    24    1
    24    23    25   ar
    25    25    26   ar
    26    15    27    1
    27    27    28    1
    28    28    29   ar
    29    29    30   ar
    30    30    31   ar
    31    31    32    1
    32    31    33   ar
    33    33    34   ar
    34    12     7   ar
    35    26    16   ar
    36    34    28   ar
    37    27    11    1
    38    25    20   ar
    39     1    35    1
    40     1    36    1
    41     1    37    1
    42     2    38    1
    43     2    39    1
    44     6    40    1
    45     8    41    1
    46    10    42    1
    47    10    43    1
    48    10    44    1
    49    17    45    1
    50    19    46    1
    51    19    47    1
    52    19    48    1
    53    24    49    1
    54    24    50    1
    55    24    51    1
    56    27    52    1
    57    29    53    1
    58    30    54    1
    59    33    55    1
    60    34    56    1
