@<TRIPOS>MOLECULE
*****
 45 47 0 0 0
SMALL
GASTEIGER

@<TRIPOS>ATOM
      1 C          -7.5948   -0.5523    1.1840 C.3     1  UNL1       -0.0612
      2 C          -7.2370   -0.5024   -0.2848 C.3     1  UNL1       -0.0291
      3 C          -5.8329   -0.0081   -0.3944 C.ar    1  UNL1       -0.0295
      4 C          -5.4917    1.3196   -0.5076 C.ar    1  UNL1        0.0310
      5 N          -4.2106    1.7334   -0.6049 N.ar    1  UNL1       -0.2595
      6 C          -3.1945    0.8325   -0.5940 C.ar    1  UNL1        0.0445
      7 C          -1.7542    1.1965   -0.6962 C.3     1  UNL1        0.0239
      8 C          -1.1570    1.4283    0.6542 C.3     1  UNL1        0.0950
      9 O           0.1861    1.7692    0.6554 O.3     1  UNL1       -0.4916
     10 C           1.1843    0.9654    0.2045 C.ar    1  UNL1        0.1205
     11 C           2.3687    1.6773    0.3571 C.ar    1  UNL1       -0.0197
     12 C           3.6236    1.1615   -0.0044 C.ar    1  UNL1       -0.0551
     13 C           3.7142   -0.1267   -0.5458 C.ar    1  UNL1       -0.0456
     14 C           4.9476   -0.7935   -0.9673 C.3     1  UNL1       -0.0069
     15 C           5.6251   -1.5927    0.0970 C.3     1  UNL1        0.0945
     16 S           7.1256   -2.3182   -0.6720 S.3     1  UNL1       -0.0542
     17 C           8.2461   -0.9841   -0.2106 C.2     1  UNL1        0.2789
     18 O           9.4481   -0.9309   -0.5802 O.2     1  UNL1       -0.2625
     19 N           7.4522   -0.1214    0.5968 N.am    1  UNL1       -0.2463
     20 C           6.3056   -0.7339    1.1196 C.2     1  UNL1        0.2336
     21 O           5.8725   -0.5942    2.3163 O.2     1  UNL1       -0.2741
     22 C           2.5186   -0.8403   -0.6974 C.ar    1  UNL1       -0.0551
     23 C           1.3328   -0.2728   -0.3224 C.ar    1  UNL1       -0.0197
     24 C          -3.5086   -0.5083   -0.4814 C.ar    1  UNL1       -0.0400
     25 C          -4.8240   -0.9427   -0.3807 C.ar    1  UNL1       -0.0555
     26 H          -6.7597   -1.1069    1.6922 H       1  UNL1        0.0233
     27 H          -8.5064   -1.1599    1.3168 H       1  UNL1        0.0233
     28 H          -7.6974    0.4659    1.5667 H       1  UNL1        0.0233
     29 H          -7.9092    0.1792   -0.8377 H       1  UNL1        0.0311
     30 H          -7.3334   -1.5185   -0.7090 H       1  UNL1        0.0311
     31 H          -6.3046    2.0418   -0.5164 H       1  UNL1        0.0832
     32 H          -1.2857    0.4635   -1.3289 H       1  UNL1        0.0361
     33 H          -1.6874    2.1722   -1.2374 H       1  UNL1        0.0361
     34 H          -1.6972    2.3077    1.1259 H       1  UNL1        0.0700
     35 H          -1.3787    0.5215    1.2763 H       1  UNL1        0.0700
     36 H           2.5639    2.6851    0.7491 H       1  UNL1        0.0654
     37 H           4.5848    1.6113    0.0667 H       1  UNL1        0.0621
     38 H           4.7425   -1.4779   -1.8171 H       1  UNL1        0.0329
     39 H           5.7079   -0.0761   -1.3753 H       1  UNL1        0.0329
     40 H           5.0030   -2.3625    0.5553 H       1  UNL1        0.0515
     41 H           7.7335    0.8896    0.7664 H       1  UNL1        0.1583
     42 H           2.4476   -1.8434   -1.1021 H       1  UNL1        0.0621
     43 H           0.4018   -0.7946   -0.4103 H       1  UNL1        0.0654
     44 H          -2.7152   -1.2535   -0.4699 H       1  UNL1        0.0636
     45 H          -5.0561   -2.0057   -0.2923 H       1  UNL1        0.0621
@<TRIPOS>BOND
     1     1     2    1
     2     2     3    1
     3     3     4   ar
     4     4     5   ar
     5     5     6   ar
     6     6     7    1
     7     7     8    1
     8     8     9    1
     9     9    10    1
    10    10    11   ar
    11    11    12   ar
    12    12    13   ar
    13    13    14    1
    14    14    15    1
    15    15    16    1
    16    16    17    1
    17    17    18    2
    18    17    19   am
    19    19    20   am
    20    20    21    2
    21    13    22   ar
    22    22    23   ar
    23     6    24   ar
    24    24    25   ar
    25    25     3   ar
    26    23    10   ar
    27    20    15    1
    28     1    26    1
    29     1    27    1
    30     1    28    1
    31     2    29    1
    32     2    30    1
    33     4    31    1
    34     7    32    1
    35     7    33    1
    36     8    34    1
    37     8    35    1
    38    11    36    1
    39    12    37    1
    40    14    38    1
    41    14    39    1
    42    15    40    1
    43    19    41    1
    44    22    42    1
    45    23    43    1
    46    24    44    1
    47    25    45    1
