@<TRIPOS>MOLECULE
*****
 53 56 0 0 0
SMALL
GASTEIGER

@<TRIPOS>ATOM
      1 O           2.5791    0.0529   -2.6579 O.2     1  UNL1       -0.2677
      2 C           2.2520   -0.3484   -1.4972 C.ar    1  UNL1        0.2525
      3 C           0.9237   -0.2576   -1.1558 C.ar    1  UNL1        0.0122
      4 C           0.4946   -0.6828    0.1096 C.ar    1  UNL1        0.0070
      5 C          -0.9274   -0.5604    0.4109 C.ar    1  UNL1        0.0762
      6 C          -1.3859   -0.9642    1.6344 C.ar    1  UNL1       -0.0174
      7 C          -2.7564   -0.8357    1.8981 C.ar    1  UNL1        0.0332
      8 N          -3.5755   -0.3291    0.9638 N.ar    1  UNL1       -0.2229
      9 C          -3.1159    0.0654   -0.2363 C.ar    1  UNL1        0.2159
     10 N          -3.9975    0.6045   -1.2263 N.pl3   1  UNL1       -0.3105
     11 C          -5.4094    0.7307   -0.9455 C.3     1  UNL1        0.0275
     12 C          -5.9795   -0.6080   -0.6668 C.3     1  UNL1       -0.0109
     13 C          -6.8738   -0.5409    0.5456 C.3     1  UNL1        0.0493
     14 O          -7.7410    0.5430    0.3281 O.3     1  UNL1       -0.3796
     15 C          -7.0598    1.7010    0.6806 C.3     1  UNL1        0.0493
     16 C          -5.6780    1.7694    0.1018 C.3     1  UNL1       -0.0109
     17 N          -1.8026   -0.0619   -0.4786 N.ar    1  UNL1       -0.2145
     18 C           1.4434   -1.1719    0.9435 C.ar    1  UNL1       -0.0361
     19 C           2.7823   -1.2425    0.5462 C.ar    1  UNL1        0.0093
     20 N           3.1860   -0.8342   -0.6651 N.ar    1  UNL1       -0.3056
     21 C           4.5765   -0.9094   -1.0732 C.3     1  UNL1        0.0853
     22 C           5.1906   -2.2302   -0.6666 C.3     1  UNL1        0.0691
     23 O           4.4604   -3.2393   -1.2925 O.3     1  UNL1       -0.3926
     24 C           5.2752    0.2446   -0.4977 C.ar    1  UNL1       -0.0197
     25 C           5.8856    0.2330    0.7374 C.ar    1  UNL1       -0.0550
     26 C           6.5233    1.3536    1.2148 C.ar    1  UNL1       -0.0403
     27 C           6.5684    2.5126    0.4736 C.ar    1  UNL1        0.0761
     28 CL          7.3862    3.9549    1.0821 Cl      1  UNL1       -0.0806
     29 C           5.9645    2.5408   -0.7602 C.ar    1  UNL1        0.1419
     30 F           6.0022    3.6818   -1.5034 F       1  UNL1       -0.2040
     31 C           5.3255    1.4097   -1.2326 C.ar    1  UNL1       -0.0198
     32 H           0.1817    0.1356   -1.8353 H       1  UNL1        0.0678
     33 H          -0.7745   -1.3773    2.4206 H       1  UNL1        0.0654
     34 H          -3.1463   -1.1483    2.8603 H       1  UNL1        0.0831
     35 H          -3.5795    0.8955   -2.1405 H       1  UNL1        0.1492
     36 H          -5.8864    1.0889   -1.9074 H       1  UNL1        0.0500
     37 H          -6.5853   -1.0131   -1.5075 H       1  UNL1        0.0305
     38 H          -5.1525   -1.3422   -0.4914 H       1  UNL1        0.0305
     39 H          -7.4733   -1.4874    0.6134 H       1  UNL1        0.0560
     40 H          -6.3146   -0.4297    1.4880 H       1  UNL1        0.0560
     41 H          -7.6452    2.5561    0.2840 H       1  UNL1        0.0560
     42 H          -7.0870    1.7823    1.7863 H       1  UNL1        0.0560
     43 H          -5.4537    2.7743   -0.3110 H       1  UNL1        0.0305
     44 H          -4.9602    1.6028    0.9314 H       1  UNL1        0.0305
     45 H           1.1470   -1.5115    1.9342 H       1  UNL1        0.0639
     46 H           3.4963   -1.6510    1.2766 H       1  UNL1        0.0810
     47 H           4.6297   -0.8536   -2.1690 H       1  UNL1        0.0601
     48 H           6.2164   -2.2556   -1.1014 H       1  UNL1        0.0581
     49 H           5.1770   -2.4140    0.4081 H       1  UNL1        0.0581
     50 H           4.9600   -4.0939   -1.2844 H       1  UNL1        0.2095
     51 H           5.8674   -0.6640    1.3445 H       1  UNL1        0.0621
     52 H           6.9963    1.3143    2.1934 H       1  UNL1        0.0633
     53 H           4.8698    1.5101   -2.2206 H       1  UNL1        0.0650
@<TRIPOS>BOND
     1     1     2    2
     2     2     3   ar
     3     3     4   ar
     4     4     5    1
     5     5     6   ar
     6     6     7   ar
     7     7     8   ar
     8     8     9   ar
     9     9    10    1
    10    10    11    1
    11    11    12    1
    12    12    13    1
    13    13    14    1
    14    14    15    1
    15    15    16    1
    16     9    17   ar
    17     4    18   ar
    18    18    19   ar
    19    19    20   ar
    20    20    21    1
    21    21    22    1
    22    22    23    1
    23    21    24    1
    24    24    25   ar
    25    25    26   ar
    26    26    27   ar
    27    27    28    1
    28    27    29   ar
    29    29    30    1
    30    29    31   ar
    31    20     2   ar
    32    31    24   ar
    33    17     5   ar
    34    16    11    1
    35     3    32    1
    36     6    33    1
    37     7    34    1
    38    10    35    1
    39    11    36    1
    40    12    37    1
    41    12    38    1
    42    13    39    1
    43    13    40    1
    44    15    41    1
    45    15    42    1
    46    16    43    1
    47    16    44    1
    48    18    45    1
    49    19    46    1
    50    21    47    1
    51    22    48    1
    52    22    49    1
    53    23    50    1
    54    25    51    1
    55    26    52    1
    56    31    53    1
