
     RDKit          3D

 53 56  0  0  0  0  0  0  0  0999 V2000
    2.5791    0.0529   -2.6579 O   0  0  0  0  0  0  0  0  0  0  0  0
    2.2520   -0.3484   -1.4972 C   0  0  0  0  0  0  0  0  0  0  0  0
    0.9237   -0.2576   -1.1558 C   0  0  0  0  0  0  0  0  0  0  0  0
    0.4946   -0.6828    0.1096 C   0  0  0  0  0  0  0  0  0  0  0  0
   -0.9274   -0.5604    0.4109 C   0  0  0  0  0  0  0  0  0  0  0  0
   -1.3859   -0.9642    1.6344 C   0  0  0  0  0  0  0  0  0  0  0  0
   -2.7564   -0.8357    1.8981 C   0  0  0  0  0  0  0  0  0  0  0  0
   -3.5755   -0.3291    0.9638 N   0  0  0  0  0  0  0  0  0  0  0  0
   -3.1159    0.0654   -0.2363 C   0  0  0  0  0  0  0  0  0  0  0  0
   -3.9975    0.6045   -1.2263 N   0  0  0  0  0  0  0  0  0  0  0  0
   -5.4094    0.7307   -0.9455 C   0  0  0  0  0  0  0  0  0  0  0  0
   -5.9795   -0.6080   -0.6668 C   0  0  0  0  0  0  0  0  0  0  0  0
   -6.8738   -0.5409    0.5456 C   0  0  0  0  0  0  0  0  0  0  0  0
   -7.7410    0.5430    0.3281 O   0  0  0  0  0  0  0  0  0  0  0  0
   -7.0598    1.7010    0.6806 C   0  0  0  0  0  0  0  0  0  0  0  0
   -5.6780    1.7694    0.1018 C   0  0  0  0  0  0  0  0  0  0  0  0
   -1.8026   -0.0619   -0.4786 N   0  0  0  0  0  0  0  0  0  0  0  0
    1.4434   -1.1719    0.9435 C   0  0  0  0  0  0  0  0  0  0  0  0
    2.7823   -1.2425    0.5462 C   0  0  0  0  0  0  0  0  0  0  0  0
    3.1860   -0.8342   -0.6651 N   0  0  0  0  0  0  0  0  0  0  0  0
    4.5765   -0.9094   -1.0732 C   0  0  2  0  0  0  0  0  0  0  0  0
    5.1906   -2.2302   -0.6666 C   0  0  0  0  0  0  0  0  0  0  0  0
    4.4604   -3.2393   -1.2925 O   0  0  0  0  0  0  0  0  0  0  0  0
    5.2752    0.2446   -0.4977 C   0  0  0  0  0  0  0  0  0  0  0  0
    5.8856    0.2330    0.7374 C   0  0  0  0  0  0  0  0  0  0  0  0
    6.5233    1.3536    1.2148 C   0  0  0  0  0  0  0  0  0  0  0  0
    6.5684    2.5126    0.4736 C   0  0  0  0  0  0  0  0  0  0  0  0
    7.3862    3.9549    1.0821 Cl  0  0  0  0  0  0  0  0  0  0  0  0
    5.9645    2.5408   -0.7602 C   0  0  0  0  0  0  0  0  0  0  0  0
    6.0022    3.6818   -1.5034 F   0  0  0  0  0  0  0  0  0  0  0  0
    5.3255    1.4097   -1.2326 C   0  0  0  0  0  0  0  0  0  0  0  0
    0.1817    0.1356   -1.8353 H   0  0  0  0  0  0  0  0  0  0  0  0
   -0.7745   -1.3773    2.4206 H   0  0  0  0  0  0  0  0  0  0  0  0
   -3.1463   -1.1483    2.8603 H   0  0  0  0  0  0  0  0  0  0  0  0
   -3.5795    0.8955   -2.1405 H   0  0  0  0  0  0  0  0  0  0  0  0
   -5.8864    1.0889   -1.9074 H   0  0  0  0  0  0  0  0  0  0  0  0
   -6.5853   -1.0131   -1.5075 H   0  0  0  0  0  0  0  0  0  0  0  0
   -5.1525   -1.3422   -0.4914 H   0  0  0  0  0  0  0  0  0  0  0  0
   -7.4733   -1.4874    0.6134 H   0  0  0  0  0  0  0  0  0  0  0  0
   -6.3146   -0.4297    1.4880 H   0  0  0  0  0  0  0  0  0  0  0  0
   -7.6452    2.5561    0.2840 H   0  0  0  0  0  0  0  0  0  0  0  0
   -7.0870    1.7823    1.7863 H   0  0  0  0  0  0  0  0  0  0  0  0
   -5.4537    2.7743   -0.3110 H   0  0  0  0  0  0  0  0  0  0  0  0
   -4.9602    1.6028    0.9314 H   0  0  0  0  0  0  0  0  0  0  0  0
    1.1470   -1.5115    1.9342 H   0  0  0  0  0  0  0  0  0  0  0  0
    3.4963   -1.6510    1.2766 H   0  0  0  0  0  0  0  0  0  0  0  0
    4.6297   -0.8536   -2.1690 H   0  0  0  0  0  0  0  0  0  0  0  0
    6.2164   -2.2556   -1.1014 H   0  0  0  0  0  0  0  0  0  0  0  0
    5.1770   -2.4140    0.4081 H   0  0  0  0  0  0  0  0  0  0  0  0
    4.9600   -4.0939   -1.2844 H   0  0  0  0  0  0  0  0  0  0  0  0
    5.8674   -0.6640    1.3445 H   0  0  0  0  0  0  0  0  0  0  0  0
    6.9963    1.3143    2.1934 H   0  0  0  0  0  0  0  0  0  0  0  0
    4.8698    1.5101   -2.2206 H   0  0  0  0  0  0  0  0  0  0  0  0
  1  2  2  0
  2  3  1  0
  3  4  2  0
  4  5  1  0
  5  6  2  0
  6  7  1  0
  7  8  2  0
  8  9  1  0
  9 10  1  0
 10 11  1  0
 11 12  1  0
 12 13  1  0
 13 14  1  0
 14 15  1  0
 15 16  1  0
  9 17  2  0
  4 18  1  0
 18 19  2  0
 19 20  1  0
 20 21  1  0
 21 22  1  0
 22 23  1  0
 21 24  1  0
 24 25  2  0
 25 26  1  0
 26 27  2  0
 27 28  1  0
 27 29  1  0
 29 30  1  0
 29 31  2  0
 20  2  1  0
 31 24  1  0
 17  5  1  0
 16 11  1  0
  3 32  1  0
  6 33  1  0
  7 34  1  0
 10 35  1  0
 11 36  1  0
 12 37  1  0
 12 38  1  0
 13 39  1  0
 13 40  1  0
 15 41  1  0
 15 42  1  0
 16 43  1  0
 16 44  1  0
 18 45  1  0
 19 46  1  0
 21 47  1  6
 22 48  1  0
 22 49  1  0
 23 50  1  0
 25 51  1  0
 26 52  1  0
 31 53  1  0
M  END
$$$$
