
     RDKit          3D

 66 70  0  0  0  0  0  0  0  0999 V2000
   -8.4229   -1.5258    2.2357 C   0  0  0  0  0  0  0  0  0  0  0  0
   -8.1284   -0.3064    1.4602 C   0  0  0  0  0  0  0  0  0  0  0  0
   -8.8001    0.8529    1.5834 N   0  0  0  0  0  0  0  0  0  0  0  0
   -8.3179    1.7706    0.7736 N   0  0  0  0  0  0  0  0  0  0  0  0
   -8.7766    3.1398    0.6136 C   0  0  0  0  0  0  0  0  0  0  0  0
   -7.2984    1.2131    0.0916 C   0  0  0  0  0  0  0  0  0  0  0  0
   -7.1654   -0.0886    0.5087 C   0  0  0  0  0  0  0  0  0  0  0  0
   -6.2320   -1.0362    0.0396 N   0  0  0  0  0  0  0  0  0  0  0  0
   -5.2640   -0.6806   -0.9244 C   0  0  0  0  0  0  0  0  0  0  0  0
   -5.6816   -0.4518   -2.1860 N   0  0  0  0  0  0  0  0  0  0  0  0
   -4.7990   -0.1251   -3.1714 C   0  0  0  0  0  0  0  0  0  0  0  0
   -3.4728   -0.0435   -2.8155 C   0  0  0  0  0  0  0  0  0  0  0  0
   -2.6025    0.2877   -3.8194 F   0  0  0  0  0  0  0  0  0  0  0  0
   -3.0237   -0.2723   -1.5378 C   0  0  0  0  0  0  0  0  0  0  0  0
   -1.5997   -0.1724   -1.2693 C   0  0  0  0  0  0  0  0  0  0  0  0
   -0.6807    0.8151   -1.5758 C   0  0  0  0  0  0  0  0  0  0  0  0
    0.5502    0.4550   -1.1269 N   0  0  0  0  0  0  0  0  0  0  0  0
    0.4727   -0.7299   -0.5385 C   0  0  0  0  0  0  0  0  0  0  0  0
    1.4413   -1.5046    0.0720 C   0  0  0  0  0  0  0  0  0  0  0  0
    2.7948   -1.0786    0.1126 N   0  0  0  0  0  0  0  0  0  0  0  0
    3.6480   -1.3005    1.2279 C   0  0  0  0  0  0  0  0  0  0  0  0
    3.1114   -1.9074    2.2109 O   0  0  0  0  0  0  0  0  0  0  0  0
    5.0587   -0.8814    1.2961 C   0  0  1  0  0  0  0  0  0  0  0  0
    6.0089   -2.0562    1.3686 C   0  0  0  0  0  0  0  0  0  0  0  0
    5.4361   -0.0689    0.1610 N   0  0  0  0  0  0  0  0  0  0  0  0
    6.8987    0.0935    0.1270 C   0  0  0  0  0  0  0  0  0  0  0  0
    7.1876    0.6573   -1.2716 C   0  0  0  0  0  0  0  0  0  0  0  0
    6.7593    2.0436   -1.2080 N   0  0  0  0  0  0  0  0  0  0  0  0
    7.6098    2.7932   -0.3136 C   0  0  0  0  0  0  0  0  0  0  0  0
    5.3600    2.0985   -0.8775 C   0  0  0  0  0  0  0  0  0  0  0  0
    4.9612    1.3089    0.3249 C   0  0  0  0  0  0  0  0  0  0  0  0
    1.0765   -2.7200    0.6188 C   0  0  0  0  0  0  0  0  0  0  0  0
   -0.2553   -3.1538    0.5526 C   0  0  0  0  0  0  0  0  0  0  0  0
   -1.1937   -2.3572   -0.0615 C   0  0  0  0  0  0  0  0  0  0  0  0
   -0.8465   -1.1368   -0.6151 C   0  0  0  0  0  0  0  0  0  0  0  0
   -3.9515   -0.5898   -0.6132 N   0  0  0  0  0  0  0  0  0  0  0  0
   -7.7225   -1.6719    3.0693 H   0  0  0  0  0  0  0  0  0  0  0  0
   -9.4297   -1.4678    2.6534 H   0  0  0  0  0  0  0  0  0  0  0  0
   -8.4396   -2.3956    1.5239 H   0  0  0  0  0  0  0  0  0  0  0  0
   -9.8259    3.1606    0.9830 H   0  0  0  0  0  0  0  0  0  0  0  0
   -8.1907    3.8224    1.2521 H   0  0  0  0  0  0  0  0  0  0  0  0
   -8.7136    3.4877   -0.4441 H   0  0  0  0  0  0  0  0  0  0  0  0
   -6.6712    1.6569   -0.6506 H   0  0  0  0  0  0  0  0  0  0  0  0
   -6.2423   -2.0068    0.4000 H   0  0  0  0  0  0  0  0  0  0  0  0
   -5.1745    0.0509   -4.1683 H   0  0  0  0  0  0  0  0  0  0  0  0
   -0.9351    1.7160   -2.0929 H   0  0  0  0  0  0  0  0  0  0  0  0
    1.4326    1.0031   -1.2155 H   0  0  0  0  0  0  0  0  0  0  0  0
    3.1661   -0.5932   -0.7269 H   0  0  0  0  0  0  0  0  0  0  0  0
    5.1866   -0.3309    2.2581 H   0  0  0  0  0  0  0  0  0  0  0  0
    5.4456   -2.8765    1.9004 H   0  0  0  0  0  0  0  0  0  0  0  0
    6.8920   -1.8629    1.9859 H   0  0  0  0  0  0  0  0  0  0  0  0
    6.2398   -2.4908    0.3585 H   0  0  0  0  0  0  0  0  0  0  0  0
    7.4459   -0.8203    0.3275 H   0  0  0  0  0  0  0  0  0  0  0  0
    7.2217    0.8738    0.8461 H   0  0  0  0  0  0  0  0  0  0  0  0
    8.2248    0.5500   -1.5728 H   0  0  0  0  0  0  0  0  0  0  0  0
    6.4834    0.1462   -1.9784 H   0  0  0  0  0  0  0  0  0  0  0  0
    8.0010    3.6812   -0.8707 H   0  0  0  0  0  0  0  0  0  0  0  0
    7.1351    3.0536    0.6380 H   0  0  0  0  0  0  0  0  0  0  0  0
    8.5260    2.1812   -0.0957 H   0  0  0  0  0  0  0  0  0  0  0  0
    4.7992    1.7092   -1.7532 H   0  0  0  0  0  0  0  0  0  0  0  0
    5.0506    3.1629   -0.7744 H   0  0  0  0  0  0  0  0  0  0  0  0
    5.3568    1.7522    1.2738 H   0  0  0  0  0  0  0  0  0  0  0  0
    3.8722    1.3047    0.4251 H   0  0  0  0  0  0  0  0  0  0  0  0
    1.7884   -3.3792    1.1038 H   0  0  0  0  0  0  0  0  0  0  0  0
   -0.5364   -4.1121    0.9852 H   0  0  0  0  0  0  0  0  0  0  0  0
   -2.2488   -2.6462   -0.1414 H   0  0  0  0  0  0  0  0  0  0  0  0
  1  2  1  0
  2  3  2  0
  3  4  1  0
  4  5  1  0
  4  6  1  0
  6  7  2  0
  7  8  1  0
  8  9  1  0
  9 10  2  0
 10 11  1  0
 11 12  2  0
 12 13  1  0
 12 14  1  0
 14 15  1  0
 15 16  2  0
 16 17  1  0
 17 18  1  0
 18 19  2  0
 19 20  1  0
 20 21  1  0
 21 22  2  0
 21 23  1  0
 23 24  1  0
 23 25  1  0
 25 26  1  0
 26 27  1  0
 27 28  1  0
 28 29  1  0
 28 30  1  0
 30 31  1  0
 19 32  1  0
 32 33  2  0
 33 34  1  0
 34 35  2  0
 14 36  2  0
  7  2  1  0
 36  9  1  0
 35 15  1  0
 35 18  1  0
 31 25  1  0
  1 37  1  0
  1 38  1  0
  1 39  1  0
  5 40  1  0
  5 41  1  0
  5 42  1  0
  6 43  1  0
  8 44  1  0
 11 45  1  0
 16 46  1  0
 17 47  1  0
 20 48  1  0
 23 49  1  1
 24 50  1  0
 24 51  1  0
 24 52  1  0
 26 53  1  0
 26 54  1  0
 27 55  1  0
 27 56  1  0
 29 57  1  0
 29 58  1  0
 29 59  1  0
 30 60  1  0
 30 61  1  0
 31 62  1  0
 31 63  1  0
 32 64  1  0
 33 65  1  0
 34 66  1  0
M  END
$$$$
