@<TRIPOS>MOLECULE
*****
 66 70 0 0 0
SMALL
GASTEIGER

@<TRIPOS>ATOM
      1 C          -8.4229   -1.5258    2.2357 C.3     1  UNL1       -0.0188
      2 C          -8.1284   -0.3064    1.4602 C.ar    1  UNL1        0.0811
      3 N          -8.8001    0.8529    1.5834 N.ar    1  UNL1       -0.1748
      4 N          -8.3179    1.7706    0.7736 N.ar    1  UNL1       -0.2724
      5 C          -8.7766    3.1398    0.6136 C.3     1  UNL1        0.0303
      6 C          -7.2984    1.2131    0.0916 C.ar    1  UNL1        0.0467
      7 C          -7.1654   -0.0886    0.5087 C.ar    1  UNL1        0.0744
      8 N          -6.2320   -1.0362    0.0396 N.pl3   1  UNL1       -0.2809
      9 C          -5.2640   -0.6806   -0.9244 C.ar    1  UNL1        0.2202
     10 N          -5.6816   -0.4518   -2.1860 N.ar    1  UNL1       -0.2198
     11 C          -4.7990   -0.1251   -3.1714 C.ar    1  UNL1        0.0685
     12 C          -3.4728   -0.0435   -2.8155 C.ar    1  UNL1        0.1674
     13 F          -2.6025    0.2877   -3.8194 F       1  UNL1       -0.2016
     14 C          -3.0237   -0.2723   -1.5378 C.ar    1  UNL1        0.1132
     15 C          -1.5997   -0.1724   -1.2693 C.ar    1  UNL1        0.0284
     16 C          -0.6807    0.8151   -1.5758 C.ar    1  UNL1        0.0121
     17 N           0.5502    0.4550   -1.1269 N.ar    1  UNL1       -0.3586
     18 C           0.4727   -0.7299   -0.5385 C.ar    1  UNL1        0.0686
     19 C           1.4413   -1.5046    0.0720 C.ar    1  UNL1        0.0576
     20 N           2.7948   -1.0786    0.1126 N.am    1  UNL1       -0.2825
     21 C           3.6480   -1.3005    1.2279 C.2     1  UNL1        0.2342
     22 O           3.1114   -1.9074    2.2109 O.2     1  UNL1       -0.2738
     23 C           5.0587   -0.8814    1.2961 C.3     1  UNL1        0.0848
     24 C           6.0089   -2.0562    1.3686 C.3     1  UNL1       -0.0409
     25 N           5.4361   -0.0689    0.1610 N.3     1  UNL1       -0.2893
     26 C           6.8987    0.0935    0.1270 C.3     1  UNL1        0.0124
     27 C           7.1876    0.6573   -1.2716 C.3     1  UNL1        0.0114
     28 N           6.7593    2.0436   -1.2080 N.3     1  UNL1       -0.3029
     29 C           7.6098    2.7932   -0.3136 C.3     1  UNL1       -0.0127
     30 C           5.3600    2.0985   -0.8775 C.3     1  UNL1        0.0114
     31 C           4.9612    1.3089    0.3249 C.3     1  UNL1        0.0124
     32 C           1.0765   -2.7200    0.6188 C.ar    1  UNL1       -0.0384
     33 C          -0.2553   -3.1538    0.5526 C.ar    1  UNL1       -0.0593
     34 C          -1.1937   -2.3572   -0.0615 C.ar    1  UNL1       -0.0518
     35 C          -0.8465   -1.1368   -0.6151 C.ar    1  UNL1        0.0107
     36 N          -3.9515   -0.5898   -0.6132 N.ar    1  UNL1       -0.2113
     37 H          -7.7225   -1.6719    3.0693 H       1  UNL1        0.0294
     38 H          -9.4297   -1.4678    2.6534 H       1  UNL1        0.0294
     39 H          -8.4396   -2.3956    1.5239 H       1  UNL1        0.0294
     40 H          -9.8259    3.1606    0.9830 H       1  UNL1        0.0473
     41 H          -8.1907    3.8224    1.2521 H       1  UNL1        0.0473
     42 H          -8.7136    3.4877   -0.4441 H       1  UNL1        0.0473
     43 H          -6.6712    1.6569   -0.6506 H       1  UNL1        0.0845
     44 H          -6.2423   -2.0068    0.4000 H       1  UNL1        0.1551
     45 H          -5.1745    0.0509   -4.1683 H       1  UNL1        0.0861
     46 H          -0.9351    1.7160   -2.0929 H       1  UNL1        0.0814
     47 H           1.4326    1.0031   -1.2155 H       1  UNL1        0.1654
     48 H           3.1661   -0.5932   -0.7269 H       1  UNL1        0.1549
     49 H           5.1866   -0.3309    2.2581 H       1  UNL1        0.0556
     50 H           5.4456   -2.8765    1.9004 H       1  UNL1        0.0249
     51 H           6.8920   -1.8629    1.9859 H       1  UNL1        0.0249
     52 H           6.2398   -2.4908    0.3585 H       1  UNL1        0.0249
     53 H           7.4459   -0.8203    0.3275 H       1  UNL1        0.0439
     54 H           7.2217    0.8738    0.8461 H       1  UNL1        0.0439
     55 H           8.2248    0.5500   -1.5728 H       1  UNL1        0.0439
     56 H           6.4834    0.1462   -1.9784 H       1  UNL1        0.0439
     57 H           8.0010    3.6812   -0.8707 H       1  UNL1        0.0391
     58 H           7.1351    3.0536    0.6380 H       1  UNL1        0.0391
     59 H           8.5260    2.1812   -0.0957 H       1  UNL1        0.0391
     60 H           4.7992    1.7092   -1.7532 H       1  UNL1        0.0439
     61 H           5.0506    3.1629   -0.7744 H       1  UNL1        0.0439
     62 H           5.3568    1.7522    1.2738 H       1  UNL1        0.0439
     63 H           3.8722    1.3047    0.4251 H       1  UNL1        0.0439
     64 H           1.7884   -3.3792    1.1038 H       1  UNL1        0.0637
     65 H          -0.5364   -4.1121    0.9852 H       1  UNL1        0.0618
     66 H          -2.2488   -2.6462   -0.1414 H       1  UNL1        0.0624
@<TRIPOS>BOND
     1     1     2    1
     2     2     3   ar
     3     3     4   ar
     4     4     5    1
     5     4     6   ar
     6     6     7   ar
     7     7     8    1
     8     8     9    1
     9     9    10   ar
    10    10    11   ar
    11    11    12   ar
    12    12    13    1
    13    12    14   ar
    14    14    15    1
    15    15    16   ar
    16    16    17   ar
    17    17    18   ar
    18    18    19   ar
    19    19    20    1
    20    20    21   am
    21    21    22    2
    22    21    23    1
    23    23    24    1
    24    23    25    1
    25    25    26    1
    26    26    27    1
    27    27    28    1
    28    28    29    1
    29    28    30    1
    30    30    31    1
    31    19    32   ar
    32    32    33   ar
    33    33    34   ar
    34    34    35   ar
    35    14    36   ar
    36     7     2   ar
    37    36     9   ar
    38    35    15   ar
    39    35    18   ar
    40    31    25    1
    41     1    37    1
    42     1    38    1
    43     1    39    1
    44     5    40    1
    45     5    41    1
    46     5    42    1
    47     6    43    1
    48     8    44    1
    49    11    45    1
    50    16    46    1
    51    17    47    1
    52    20    48    1
    53    23    49    1
    54    24    50    1
    55    24    51    1
    56    24    52    1
    57    26    53    1
    58    26    54    1
    59    27    55    1
    60    27    56    1
    61    29    57    1
    62    29    58    1
    63    29    59    1
    64    30    60    1
    65    30    61    1
    66    31    62    1
    67    31    63    1
    68    32    64    1
    69    33    65    1
    70    34    66    1
