@<TRIPOS>MOLECULE
*****
 65 67 0 0 0
SMALL
GASTEIGER

@<TRIPOS>ATOM
      1 C           7.8087    0.7343    0.9460 C.3     1  UNL1       -0.0638
      2 C           6.3024    0.8465    0.6992 C.3     1  UNL1       -0.0350
      3 C           5.9812    1.9494   -0.2429 C.3     1  UNL1        0.0817
      4 S           4.2481    2.1211   -0.4730 S.O2    1  UNL1        0.0319
      5 O           3.6846    2.4968    0.9082 O.2     1  UNL1       -0.1580
      6 O           4.0542    3.3547   -1.3381 O.2     1  UNL1       -0.1580
      7 N           3.5266    0.7607   -1.0985 N.3     1  UNL1       -0.1787
      8 C           3.5280   -0.4596   -0.4121 C.3     1  UNL1        0.0329
      9 C           2.1544   -1.1536   -0.4496 C.3     1  UNL1        0.0139
     10 N           1.1103   -0.2484   -0.5910 N.3     1  UNL1       -0.2927
     11 C          -0.2383   -0.6807   -0.1905 C.3     1  UNL1        0.0375
     12 C          -1.0418    0.5755   -0.2966 C.3     1  UNL1        0.0304
     13 N          -2.4151    0.6005    0.0637 N.am    1  UNL1       -0.3095
     14 C          -3.5545    0.0266   -0.4878 C.2     1  UNL1        0.2477
     15 O          -3.3558   -0.6592   -1.5448 O.2     1  UNL1       -0.2701
     16 C          -4.9384    0.0978   -0.0383 C.ar    1  UNL1        0.0786
     17 C          -5.8997   -0.6945   -0.6814 C.ar    1  UNL1       -0.0461
     18 C          -7.2081   -0.7462   -0.2630 C.ar    1  UNL1       -0.0608
     19 C          -7.6589   -0.0232    0.8144 C.ar    1  UNL1       -0.0583
     20 C          -6.7386    0.7592    1.4573 C.ar    1  UNL1       -0.0189
     21 C          -5.3950    0.8102    1.0225 C.ar    1  UNL1        0.1421
     22 O          -4.5462    1.6592    1.7519 O.3     1  UNL1       -0.4050
     23 C          -4.5908    3.0280    1.2821 C.3     1  UNL1        0.5753
     24 F          -3.7548    3.8399    1.9965 F       1  UNL1       -0.1328
     25 F          -5.8713    3.5246    1.4476 F       1  UNL1       -0.1328
     26 F          -4.2992    3.0209   -0.0589 F       1  UNL1       -0.1328
     27 C          -0.6108   -1.7365   -1.1206 C.3     1  UNL1       -0.0330
     28 C          -1.3666   -2.9066   -0.5440 C.3     1  UNL1       -0.0513
     29 C          -0.5012   -3.4667    0.5772 C.3     1  UNL1       -0.0529
     30 C          -0.5292   -2.4318    1.6494 C.3     1  UNL1       -0.0513
     31 C          -0.2094   -1.0481    1.2713 C.3     1  UNL1       -0.0330
     32 C           1.1899    0.7259   -1.5908 C.3     1  UNL1        0.0139
     33 C           2.5911    0.9011   -2.1517 C.3     1  UNL1        0.0329
     34 H           8.1011    1.4969    1.6936 H       1  UNL1        0.0230
     35 H           8.3317    0.8646   -0.0199 H       1  UNL1        0.0230
     36 H           7.9863   -0.2849    1.3468 H       1  UNL1        0.0230
     37 H           6.0591   -0.1139    0.1872 H       1  UNL1        0.0279
     38 H           5.7698    0.9601    1.6348 H       1  UNL1        0.0279
     39 H           6.4133    2.9322    0.0713 H       1  UNL1        0.0515
     40 H           6.4950    1.7489   -1.2292 H       1  UNL1        0.0515
     41 H           4.2724   -1.1471   -0.8468 H       1  UNL1        0.0456
     42 H           3.8070   -0.2974    0.6483 H       1  UNL1        0.0456
     43 H           2.2261   -1.8393   -1.3110 H       1  UNL1        0.0440
     44 H           2.0841   -1.7262    0.4832 H       1  UNL1        0.0440
     45 H          -1.0119    0.9804   -1.3635 H       1  UNL1        0.0480
     46 H          -0.4879    1.4180    0.2525 H       1  UNL1        0.0480
     47 H          -2.5948    1.1657    0.9710 H       1  UNL1        0.1491
     48 H          -5.5535   -1.2709   -1.5359 H       1  UNL1        0.0626
     49 H          -7.9178   -1.3717   -0.7886 H       1  UNL1        0.0618
     50 H          -8.6851   -0.0630    1.1458 H       1  UNL1        0.0619
     51 H          -7.0335    1.3471    2.3065 H       1  UNL1        0.0654
     52 H           0.3541   -2.2671   -1.5068 H       1  UNL1        0.0284
     53 H          -1.0686   -1.4484   -2.0623 H       1  UNL1        0.0284
     54 H          -1.4848   -3.6643   -1.3400 H       1  UNL1        0.0266
     55 H          -2.3318   -2.6755   -0.1117 H       1  UNL1        0.0266
     56 H          -1.0385   -4.3705    0.9647 H       1  UNL1        0.0265
     57 H           0.4941   -3.7552    0.2380 H       1  UNL1        0.0265
     58 H          -1.5543   -2.4987    2.1233 H       1  UNL1        0.0266
     59 H           0.1451   -2.8015    2.4752 H       1  UNL1        0.0266
     60 H          -0.8988   -0.3765    1.8685 H       1  UNL1        0.0284
     61 H           0.7933   -0.7916    1.7293 H       1  UNL1        0.0284
     62 H           0.5654    0.4694   -2.4703 H       1  UNL1        0.0440
     63 H           0.8520    1.7086   -1.2245 H       1  UNL1        0.0440
     64 H           2.8090    0.1793   -2.9419 H       1  UNL1        0.0456
     65 H           2.6470    1.9148   -2.5799 H       1  UNL1        0.0456
@<TRIPOS>BOND
     1     1     2    1
     2     2     3    1
     3     3     4    1
     4     4     5    2
     5     4     6    2
     6     4     7    1
     7     7     8    1
     8     8     9    1
     9     9    10    1
    10    10    11    1
    11    11    12    1
    12    12    13    1
    13    13    14   am
    14    14    15    2
    15    14    16    1
    16    16    17   ar
    17    17    18   ar
    18    18    19   ar
    19    19    20   ar
    20    20    21   ar
    21    21    22    1
    22    22    23    1
    23    23    24    1
    24    23    25    1
    25    23    26    1
    26    11    27    1
    27    27    28    1
    28    28    29    1
    29    29    30    1
    30    30    31    1
    31    10    32    1
    32    32    33    1
    33    33     7    1
    34    31    11    1
    35    21    16   ar
    36     1    34    1
    37     1    35    1
    38     1    36    1
    39     2    37    1
    40     2    38    1
    41     3    39    1
    42     3    40    1
    43     8    41    1
    44     8    42    1
    45     9    43    1
    46     9    44    1
    47    12    45    1
    48    12    46    1
    49    13    47    1
    50    17    48    1
    51    18    49    1
    52    19    50    1
    53    20    51    1
    54    27    52    1
    55    27    53    1
    56    28    54    1
    57    28    55    1
    58    29    56    1
    59    29    57    1
    60    30    58    1
    61    30    59    1
    62    31    60    1
    63    31    61    1
    64    32    62    1
    65    32    63    1
    66    33    64    1
    67    33    65    1
