@<TRIPOS>MOLECULE
*****
 32 34 0 0 0
SMALL
GASTEIGER

@<TRIPOS>ATOM
      1 C           5.0442   -0.0535   -0.2679 C.3     1  UNL1       -0.0470
      2 C           3.9254   -0.4219   -1.2483 C.3     1  UNL1        0.0232
      3 N           2.6826   -0.5867   -0.5161 N.ar    1  UNL1       -0.3151
      4 C           2.1937   -1.7191    0.0399 C.ar    1  UNL1        0.0983
      5 N           1.0232   -1.4106    0.6145 N.ar    1  UNL1       -0.2306
      6 C           0.7430   -0.1087    0.4439 C.ar    1  UNL1        0.1478
      7 C          -0.3298    0.6872    0.8417 C.ar    1  UNL1        0.1552
      8 N          -1.4140    0.1728    1.5669 N.pl3   1  UNL1       -0.2974
      9 C          -2.6280   -0.2768    0.9364 C.ar    1  UNL1        0.0379
     10 C          -3.6234   -0.8780    1.6698 C.ar    1  UNL1       -0.0051
     11 C          -4.8056   -1.3153    1.1025 C.ar    1  UNL1        0.1279
     12 F          -5.7718   -1.9096    1.8701 F       1  UNL1       -0.2053
     13 C          -5.0287   -1.1575   -0.2543 C.ar    1  UNL1        0.0089
     14 C          -4.0265   -0.5522   -0.9952 C.ar    1  UNL1        0.1279
     15 F          -4.2339   -0.3937   -2.3186 F       1  UNL1       -0.2053
     16 C          -2.8433   -0.1163   -0.4181 C.ar    1  UNL1       -0.0051
     17 N          -0.3060    1.9963    0.4999 N.ar    1  UNL1       -0.2011
     18 C           0.7114    2.5188   -0.1981 C.ar    1  UNL1        0.2356
     19 C           0.6816    3.9288   -0.5623 C.1     1  UNL1        0.1400
     20 N           0.6749    5.0607   -0.8431 N.1     1  UNL1       -0.1876
     21 N           1.7417    1.7338   -0.5749 N.ar    1  UNL1       -0.1987
     22 C           1.8058    0.4071   -0.2772 C.ar    1  UNL1        0.1667
     23 H           4.6443   -0.1078    0.7855 H       1  UNL1        0.0247
     24 H           5.4032    0.9515   -0.5183 H       1  UNL1        0.0247
     25 H           5.8959   -0.7611   -0.3745 H       1  UNL1        0.0247
     26 H           4.1966   -1.3701   -1.7586 H       1  UNL1        0.0490
     27 H           3.7810    0.3925   -1.9864 H       1  UNL1        0.0490
     28 H           2.7116   -2.6748   -0.0085 H       1  UNL1        0.1029
     29 H          -1.3525    0.1069    2.6004 H       1  UNL1        0.1536
     30 H          -3.4798   -1.0190    2.7347 H       1  UNL1        0.0665
     31 H          -5.9333   -1.4792   -0.7511 H       1  UNL1        0.0675
     32 H          -2.0837    0.3551   -1.0497 H       1  UNL1        0.0665
@<TRIPOS>BOND
     1     1     2    1
     2     2     3    1
     3     3     4   ar
     4     4     5   ar
     5     5     6   ar
     6     6     7   ar
     7     7     8    1
     8     8     9    1
     9     9    10   ar
    10    10    11   ar
    11    11    12    1
    12    11    13   ar
    13    13    14   ar
    14    14    15    1
    15    14    16   ar
    16     7    17   ar
    17    17    18   ar
    18    18    19    1
    19    19    20    3
    20    18    21   ar
    21    21    22   ar
    22    22     3   ar
    23    22     6   ar
    24    16     9   ar
    25     1    23    1
    26     1    24    1
    27     1    25    1
    28     2    26    1
    29     2    27    1
    30     4    28    1
    31     8    29    1
    32    10    30    1
    33    13    31    1
    34    16    32    1
