
     RDKit          3D

 32 34  0  0  0  0  0  0  0  0999 V2000
    5.0442   -0.0535   -0.2679 C   0  0  0  0  0  0  0  0  0  0  0  0
    3.9254   -0.4219   -1.2483 C   0  0  0  0  0  0  0  0  0  0  0  0
    2.6826   -0.5867   -0.5161 N   0  0  0  0  0  0  0  0  0  0  0  0
    2.1937   -1.7191    0.0399 C   0  0  0  0  0  0  0  0  0  0  0  0
    1.0232   -1.4106    0.6145 N   0  0  0  0  0  0  0  0  0  0  0  0
    0.7430   -0.1087    0.4439 C   0  0  0  0  0  0  0  0  0  0  0  0
   -0.3298    0.6872    0.8417 C   0  0  0  0  0  0  0  0  0  0  0  0
   -1.4140    0.1728    1.5669 N   0  0  0  0  0  0  0  0  0  0  0  0
   -2.6280   -0.2768    0.9364 C   0  0  0  0  0  0  0  0  0  0  0  0
   -3.6234   -0.8780    1.6698 C   0  0  0  0  0  0  0  0  0  0  0  0
   -4.8056   -1.3153    1.1025 C   0  0  0  0  0  0  0  0  0  0  0  0
   -5.7718   -1.9096    1.8701 F   0  0  0  0  0  0  0  0  0  0  0  0
   -5.0287   -1.1575   -0.2543 C   0  0  0  0  0  0  0  0  0  0  0  0
   -4.0265   -0.5522   -0.9952 C   0  0  0  0  0  0  0  0  0  0  0  0
   -4.2339   -0.3937   -2.3186 F   0  0  0  0  0  0  0  0  0  0  0  0
   -2.8433   -0.1163   -0.4181 C   0  0  0  0  0  0  0  0  0  0  0  0
   -0.3060    1.9963    0.4999 N   0  0  0  0  0  0  0  0  0  0  0  0
    0.7114    2.5188   -0.1981 C   0  0  0  0  0  0  0  0  0  0  0  0
    0.6816    3.9288   -0.5623 C   0  0  0  0  0  0  0  0  0  0  0  0
    0.6749    5.0607   -0.8431 N   0  0  0  0  0  0  0  0  0  0  0  0
    1.7417    1.7338   -0.5749 N   0  0  0  0  0  0  0  0  0  0  0  0
    1.8058    0.4071   -0.2772 C   0  0  0  0  0  0  0  0  0  0  0  0
    4.6443   -0.1078    0.7855 H   0  0  0  0  0  0  0  0  0  0  0  0
    5.4032    0.9515   -0.5183 H   0  0  0  0  0  0  0  0  0  0  0  0
    5.8959   -0.7611   -0.3745 H   0  0  0  0  0  0  0  0  0  0  0  0
    4.1966   -1.3701   -1.7586 H   0  0  0  0  0  0  0  0  0  0  0  0
    3.7810    0.3925   -1.9864 H   0  0  0  0  0  0  0  0  0  0  0  0
    2.7116   -2.6748   -0.0085 H   0  0  0  0  0  0  0  0  0  0  0  0
   -1.3525    0.1069    2.6004 H   0  0  0  0  0  0  0  0  0  0  0  0
   -3.4798   -1.0190    2.7347 H   0  0  0  0  0  0  0  0  0  0  0  0
   -5.9333   -1.4792   -0.7511 H   0  0  0  0  0  0  0  0  0  0  0  0
   -2.0837    0.3551   -1.0497 H   0  0  0  0  0  0  0  0  0  0  0  0
  1  2  1  0
  2  3  1  0
  3  4  1  0
  4  5  2  0
  5  6  1  0
  6  7  2  0
  7  8  1  0
  8  9  1  0
  9 10  2  0
 10 11  1  0
 11 12  1  0
 11 13  2  0
 13 14  1  0
 14 15  1  0
 14 16  2  0
  7 17  1  0
 17 18  2  0
 18 19  1  0
 19 20  3  0
 18 21  1  0
 21 22  2  0
 22  3  1  0
 22  6  1  0
 16  9  1  0
  1 23  1  0
  1 24  1  0
  1 25  1  0
  2 26  1  0
  2 27  1  0
  4 28  1  0
  8 29  1  0
 10 30  1  0
 13 31  1  0
 16 32  1  0
M  END
$$$$
