
     RDKit          3D

 42 45  0  0  0  0  0  0  0  0999 V2000
    4.6927   -1.7069   -0.0041 C   0  0  0  0  0  0  0  0  0  0  0  0
    3.2838   -1.3269    0.0850 N   0  0  0  0  0  0  0  0  0  0  0  0
    2.8801   -0.6480   -1.0834 C   0  0  0  0  0  0  0  0  0  0  0  0
    1.8763    0.4251   -0.9581 C   0  0  0  0  0  0  0  0  0  0  0  0
    1.0902    0.2463    0.2411 N   0  0  0  0  0  0  0  0  0  0  0  0
    1.9641    0.2858    1.4140 C   0  0  0  0  0  0  0  0  0  0  0  0
    3.0596   -0.7259    1.3385 C   0  0  0  0  0  0  0  0  0  0  0  0
   -0.3154    0.0695    0.1347 C   0  0  0  0  0  0  0  0  0  0  0  0
   -0.7245   -1.1308    0.0173 N   0  0  0  0  0  0  0  0  0  0  0  0
   -2.0104   -1.6652   -0.1080 C   0  0  0  0  0  0  0  0  0  0  0  0
   -2.0567   -3.0084   -0.4785 C   0  0  0  0  0  0  0  0  0  0  0  0
   -3.2756   -3.6762   -0.6396 C   0  0  0  0  0  0  0  0  0  0  0  0
   -4.4908   -3.0145   -0.4330 C   0  0  0  0  0  0  0  0  0  0  0  0
   -4.4755   -1.6689   -0.0612 C   0  0  0  0  0  0  0  0  0  0  0  0
   -3.2361   -1.0762    0.0786 C   0  0  0  0  0  0  0  0  0  0  0  0
   -3.4967    0.2567    0.4505 N   0  0  0  0  0  0  0  0  0  0  0  0
   -2.4869    1.3478    0.3275 C   0  0  0  0  0  0  0  0  0  0  0  0
   -1.0342    1.3215    0.1810 C   0  0  0  0  0  0  0  0  0  0  0  0
   -0.4918    2.5472    0.1003 C   0  0  0  0  0  0  0  0  0  0  0  0
   -1.2646    3.7039    0.1543 C   0  0  0  0  0  0  0  0  0  0  0  0
   -0.8806    5.1070    0.0861 C   0  0  0  0  0  0  0  0  0  0  0  0
   -2.9369    3.1543    0.3351 S   0  0  0  0  0  0  0  0  0  0  0  0
    4.7900   -2.6652    0.5712 H   0  0  0  0  0  0  0  0  0  0  0  0
    5.3596   -0.9565    0.4381 H   0  0  0  0  0  0  0  0  0  0  0  0
    4.9477   -1.8385   -1.0726 H   0  0  0  0  0  0  0  0  0  0  0  0
    2.5125   -1.4029   -1.8137 H   0  0  0  0  0  0  0  0  0  0  0  0
    3.7957   -0.2247   -1.5749 H   0  0  0  0  0  0  0  0  0  0  0  0
    2.4206    1.4081   -0.8494 H   0  0  0  0  0  0  0  0  0  0  0  0
    1.2695    0.4992   -1.8679 H   0  0  0  0  0  0  0  0  0  0  0  0
    2.3989    1.3064    1.4157 H   0  0  0  0  0  0  0  0  0  0  0  0
    1.3367    0.1976    2.3103 H   0  0  0  0  0  0  0  0  0  0  0  0
    3.9995   -0.3031    1.7556 H   0  0  0  0  0  0  0  0  0  0  0  0
    2.7845   -1.5428    2.0538 H   0  0  0  0  0  0  0  0  0  0  0  0
   -1.1170   -3.5335   -0.6420 H   0  0  0  0  0  0  0  0  0  0  0  0
   -3.3215   -4.7176   -0.9267 H   0  0  0  0  0  0  0  0  0  0  0  0
   -5.3985   -3.5678   -0.5683 H   0  0  0  0  0  0  0  0  0  0  0  0
   -5.4025   -1.1384    0.1039 H   0  0  0  0  0  0  0  0  0  0  0  0
   -4.3716    0.6340    0.8334 H   0  0  0  0  0  0  0  0  0  0  0  0
    0.5710    2.6870   -0.0105 H   0  0  0  0  0  0  0  0  0  0  0  0
   -1.4354    5.6731    0.8638 H   0  0  0  0  0  0  0  0  0  0  0  0
    0.2309    5.1557    0.2720 H   0  0  0  0  0  0  0  0  0  0  0  0
   -1.0408    5.5126   -0.9220 H   0  0  0  0  0  0  0  0  0  0  0  0
  1  2  1  0
  2  3  1  0
  3  4  1  0
  4  5  1  0
  5  6  1  0
  6  7  1  0
  5  8  1  0
  8  9  2  0
  9 10  1  0
 10 11  2  0
 11 12  1  0
 12 13  2  0
 13 14  1  0
 14 15  2  0
 15 16  1  0
 16 17  1  0
 17 18  2  0
 18 19  1  0
 19 20  2  0
 20 21  1  0
 20 22  1  0
  7  2  1  0
 18  8  1  0
 15 10  1  0
 22 17  1  0
  1 23  1  0
  1 24  1  0
  1 25  1  0
  3 26  1  0
  3 27  1  0
  4 28  1  0
  4 29  1  0
  6 30  1  0
  6 31  1  0
  7 32  1  0
  7 33  1  0
 11 34  1  0
 12 35  1  0
 13 36  1  0
 14 37  1  0
 16 38  1  0
 19 39  1  0
 21 40  1  0
 21 41  1  0
 21 42  1  0
M  END
$$$$
