@<TRIPOS>MOLECULE
*****
 51 55 0 0 0
SMALL
GASTEIGER

@<TRIPOS>ATOM
      1 C          -3.7977   -1.0330   -2.2700 C.3     1  UNL1       -0.0463
      2 C          -3.6835    0.0864   -1.2619 C.3     1  UNL1        0.0262
      3 C          -3.8224    1.4494   -1.9548 C.3     1  UNL1        0.0423
      4 C          -4.1435    2.5237   -0.9821 C.2     1  UNL1        0.2190
      5 O          -5.1651    3.1904   -1.2884 O.2     1  UNL1       -0.2754
      6 N          -3.4832    2.9118    0.2280 N.am    1  UNL1       -0.2839
      7 C          -2.5321    2.0958    0.9304 C.ar    1  UNL1        0.0563
      8 C          -2.0549    2.6982    2.0636 C.ar    1  UNL1       -0.0386
      9 C          -1.1434    2.0240    2.8227 C.ar    1  UNL1       -0.0581
     10 C          -0.7016    0.7877    2.4904 C.ar    1  UNL1       -0.0384
     11 C          -1.1538    0.1170    1.3403 C.ar    1  UNL1        0.0569
     12 N          -0.6949   -1.1798    1.0218 N.pl3   1  UNL1       -0.2980
     13 C          -1.4010   -2.4390    0.9685 C.3     1  UNL1        0.0214
     14 C          -0.3451   -3.4773    1.3881 C.3     1  UNL1       -0.0098
     15 C           0.8861   -2.8367    0.8745 C.ar    1  UNL1       -0.0245
     16 C           2.1675   -3.3176    0.5764 C.ar    1  UNL1       -0.0562
     17 C           3.1697   -2.4973    0.1049 C.ar    1  UNL1       -0.0536
     18 C           2.9413   -1.1525   -0.0928 C.ar    1  UNL1       -0.0132
     19 C           4.0120   -0.2855   -0.5941 C.ar    1  UNL1        0.0196
     20 C           5.3783   -0.4213   -0.3609 C.ar    1  UNL1        0.0571
     21 N           6.0303    0.5534   -0.9797 N.ar    1  UNL1       -0.1793
     22 N           5.1385    1.3094   -1.6006 N.ar    1  UNL1       -0.2739
     23 C           5.5359    2.4772   -2.3808 C.3     1  UNL1        0.0302
     24 C           3.8994    0.8340   -1.3917 C.ar    1  UNL1        0.0329
     25 C           1.6832   -0.6723    0.1980 C.ar    1  UNL1       -0.0323
     26 C           0.6538   -1.4924    0.6777 C.ar    1  UNL1        0.0378
     27 C          -2.0780    0.8206    0.5847 C.ar    1  UNL1        0.0705
     28 N          -2.4425    0.0568   -0.5501 N.pl3   1  UNL1       -0.3379
     29 H          -2.7373   -1.2813   -2.5686 H       1  UNL1        0.0248
     30 H          -4.4187   -0.7813   -3.1300 H       1  UNL1        0.0248
     31 H          -4.1847   -1.9661   -1.8098 H       1  UNL1        0.0248
     32 H          -4.5726    0.0070   -0.6047 H       1  UNL1        0.0499
     33 H          -4.6545    1.3166   -2.6702 H       1  UNL1        0.0376
     34 H          -2.8479    1.6114   -2.4652 H       1  UNL1        0.0376
     35 H          -3.7016    3.8318    0.6212 H       1  UNL1        0.1549
     36 H          -2.4133    3.6761    2.3143 H       1  UNL1        0.0637
     37 H          -0.7393    2.4734    3.7345 H       1  UNL1        0.0619
     38 H           0.0318    0.2599    3.1127 H       1  UNL1        0.0637
     39 H          -2.2729   -2.4764    1.6555 H       1  UNL1        0.0471
     40 H          -1.6813   -2.7738   -0.0486 H       1  UNL1        0.0471
     41 H          -0.4771   -4.4301    0.8782 H       1  UNL1        0.0329
     42 H          -0.3558   -3.5534    2.4936 H       1  UNL1        0.0329
     43 H           2.3422   -4.3603    0.7306 H       1  UNL1        0.0621
     44 H           4.1642   -2.8602   -0.1287 H       1  UNL1        0.0624
     45 H           5.8368   -1.1988    0.2314 H       1  UNL1        0.0854
     46 H           4.8024    2.6724   -3.1889 H       1  UNL1        0.0473
     47 H           5.6692    3.3432   -1.7058 H       1  UNL1        0.0473
     48 H           6.5329    2.2869   -2.8487 H       1  UNL1        0.0473
     49 H           2.9745    1.2488   -1.7761 H       1  UNL1        0.0832
     50 H           1.5145    0.3979    0.0366 H       1  UNL1        0.0642
     51 H          -1.6647   -0.5746   -0.8486 H       1  UNL1        0.1465
@<TRIPOS>BOND
     1     1     2    1
     2     2     3    1
     3     3     4    1
     4     4     5    2
     5     4     6   am
     6     6     7    1
     7     7     8   ar
     8     8     9   ar
     9     9    10   ar
    10    10    11   ar
    11    11    12    1
    12    12    13    1
    13    13    14    1
    14    14    15    1
    15    15    16   ar
    16    16    17   ar
    17    17    18   ar
    18    18    19    1
    19    19    20   ar
    20    20    21   ar
    21    21    22   ar
    22    22    23    1
    23    22    24   ar
    24    18    25   ar
    25    25    26   ar
    26    11    27   ar
    27    27    28    1
    28    28     2    1
    29    27     7   ar
    30    26    12    1
    31    26    15   ar
    32    24    19   ar
    33     1    29    1
    34     1    30    1
    35     1    31    1
    36     2    32    1
    37     3    33    1
    38     3    34    1
    39     6    35    1
    40     8    36    1
    41     9    37    1
    42    10    38    1
    43    13    39    1
    44    13    40    1
    45    14    41    1
    46    14    42    1
    47    16    43    1
    48    17    44    1
    49    20    45    1
    50    23    46    1
    51    23    47    1
    52    23    48    1
    53    24    49    1
    54    25    50    1
    55    28    51    1
