@<TRIPOS>MOLECULE
*****
 42 46 0 0 0
SMALL
GASTEIGER

@<TRIPOS>ATOM
      1 C          -5.2044   -1.2340    1.1792 C.3     1  UNL1       -0.0618
      2 C          -3.9279   -0.4434    0.9523 C.3     1  UNL1       -0.0121
      3 C          -3.2069   -0.9155   -0.2923 C.3     1  UNL1        0.1877
      4 O          -2.8572   -2.2604   -0.2012 O.3     1  UNL1       -0.3732
      5 C          -4.1036   -0.6595   -1.4483 C.2     1  UNL1        0.3441
      6 O          -4.5280   -1.6074   -2.1671 O.2     1  UNL1       -0.2472
      7 O          -4.4343    0.6704   -1.6761 O.3     1  UNL1       -0.4575
      8 C          -3.5583    1.7357   -1.3856 C.3     1  UNL1        0.1230
      9 C          -2.2017    1.2118   -0.9811 C.ar    1  UNL1        0.0606
     10 C          -2.0140   -0.0483   -0.4595 C.ar    1  UNL1        0.0082
     11 C          -0.7609   -0.5075   -0.0966 C.ar    1  UNL1       -0.0290
     12 C           0.3260    0.3455   -0.2726 C.ar    1  UNL1        0.0713
     13 N           0.1456    1.5698   -0.7790 N.ar    1  UNL1       -0.3019
     14 C          -1.0930    2.0170   -1.1351 C.ar    1  UNL1        0.2589
     15 O          -1.2200    3.1906   -1.6138 O.2     1  UNL1       -0.2672
     16 C           1.4309    2.2065   -0.8412 C.3     1  UNL1        0.0539
     17 C           2.4109    1.2280   -0.3145 C.ar    1  UNL1        0.0003
     18 C           3.7756    1.2372   -0.1190 C.ar    1  UNL1       -0.0456
     19 C           4.4336    0.1470    0.4045 C.ar    1  UNL1        0.0007
     20 C           5.8063    0.1992    0.5842 C.ar    1  UNL1       -0.0526
     21 C           6.4915   -0.8605    1.0998 C.ar    1  UNL1       -0.0611
     22 C           5.7715   -1.9982    1.4409 C.ar    1  UNL1       -0.0597
     23 C           4.4079   -2.0421    1.2592 C.ar    1  UNL1       -0.0357
     24 C           3.6966   -0.9740    0.7366 C.ar    1  UNL1        0.0717
     25 N           2.3653   -1.0144    0.5582 N.ar    1  UNL1       -0.2449
     26 C           1.7383    0.0820    0.0368 C.ar    1  UNL1        0.0929
     27 H          -5.0086   -2.1703    1.7524 H       1  UNL1        0.0231
     28 H          -5.8585   -0.6031    1.8099 H       1  UNL1        0.0231
     29 H          -5.7191   -1.4533    0.2260 H       1  UNL1        0.0231
     30 H          -3.3168   -0.5267    1.8595 H       1  UNL1        0.0299
     31 H          -4.2299    0.6083    0.8283 H       1  UNL1        0.0299
     32 H          -3.1078   -2.6763    0.6502 H       1  UNL1        0.2113
     33 H          -3.9371    2.4560   -0.6617 H       1  UNL1        0.0750
     34 H          -3.4154    2.2986   -2.3520 H       1  UNL1        0.0750
     35 H          -0.6342   -1.5119    0.3157 H       1  UNL1        0.0643
     36 H           1.6224    2.4676   -1.9123 H       1  UNL1        0.0543
     37 H           1.4656    3.1571   -0.2579 H       1  UNL1        0.0543
     38 H           4.3058    2.1474   -0.3986 H       1  UNL1        0.0628
     39 H           6.3578    1.0898    0.3154 H       1  UNL1        0.0624
     40 H           7.5696   -0.8105    1.2374 H       1  UNL1        0.0618
     41 H           6.3441   -2.8252    1.8487 H       1  UNL1        0.0618
     42 H           3.8723   -2.9230    1.5265 H       1  UNL1        0.0639
@<TRIPOS>BOND
     1     1     2    1
     2     2     3    1
     3     3     4    1
     4     3     5    1
     5     5     6    2
     6     5     7    1
     7     7     8    1
     8     8     9    1
     9     9    10   ar
    10    10    11   ar
    11    11    12   ar
    12    12    13   ar
    13    13    14   ar
    14    14    15    2
    15    13    16    1
    16    16    17    1
    17    17    18   ar
    18    18    19   ar
    19    19    20   ar
    20    20    21   ar
    21    21    22   ar
    22    22    23   ar
    23    23    24   ar
    24    24    25   ar
    25    25    26   ar
    26    10     3    1
    27    26    12    1
    28    14     9   ar
    29    26    17   ar
    30    24    19   ar
    31     1    27    1
    32     1    28    1
    33     1    29    1
    34     2    30    1
    35     2    31    1
    36     4    32    1
    37     8    33    1
    38     8    34    1
    39    11    35    1
    40    16    36    1
    41    16    37    1
    42    18    38    1
    43    20    39    1
    44    21    40    1
    45    22    41    1
    46    23    42    1
