
     RDKit          3D

 42 46  0  0  0  0  0  0  0  0999 V2000
   -5.2044   -1.2340    1.1792 C   0  0  0  0  0  0  0  0  0  0  0  0
   -3.9279   -0.4434    0.9523 C   0  0  0  0  0  0  0  0  0  0  0  0
   -3.2069   -0.9155   -0.2923 C   0  0  1  0  0  0  0  0  0  0  0  0
   -2.8572   -2.2604   -0.2012 O   0  0  0  0  0  0  0  0  0  0  0  0
   -4.1036   -0.6595   -1.4483 C   0  0  0  0  0  0  0  0  0  0  0  0
   -4.5280   -1.6074   -2.1671 O   0  0  0  0  0  0  0  0  0  0  0  0
   -4.4343    0.6704   -1.6761 O   0  0  0  0  0  0  0  0  0  0  0  0
   -3.5583    1.7357   -1.3856 C   0  0  0  0  0  0  0  0  0  0  0  0
   -2.2017    1.2118   -0.9811 C   0  0  0  0  0  0  0  0  0  0  0  0
   -2.0140   -0.0483   -0.4595 C   0  0  0  0  0  0  0  0  0  0  0  0
   -0.7609   -0.5075   -0.0966 C   0  0  0  0  0  0  0  0  0  0  0  0
    0.3260    0.3455   -0.2726 C   0  0  0  0  0  0  0  0  0  0  0  0
    0.1456    1.5698   -0.7790 N   0  0  0  0  0  0  0  0  0  0  0  0
   -1.0930    2.0170   -1.1351 C   0  0  0  0  0  0  0  0  0  0  0  0
   -1.2200    3.1906   -1.6138 O   0  0  0  0  0  0  0  0  0  0  0  0
    1.4309    2.2065   -0.8412 C   0  0  0  0  0  0  0  0  0  0  0  0
    2.4109    1.2280   -0.3145 C   0  0  0  0  0  0  0  0  0  0  0  0
    3.7756    1.2372   -0.1190 C   0  0  0  0  0  0  0  0  0  0  0  0
    4.4336    0.1470    0.4045 C   0  0  0  0  0  0  0  0  0  0  0  0
    5.8063    0.1992    0.5842 C   0  0  0  0  0  0  0  0  0  0  0  0
    6.4915   -0.8605    1.0998 C   0  0  0  0  0  0  0  0  0  0  0  0
    5.7715   -1.9982    1.4409 C   0  0  0  0  0  0  0  0  0  0  0  0
    4.4079   -2.0421    1.2592 C   0  0  0  0  0  0  0  0  0  0  0  0
    3.6966   -0.9740    0.7366 C   0  0  0  0  0  0  0  0  0  0  0  0
    2.3653   -1.0144    0.5582 N   0  0  0  0  0  0  0  0  0  0  0  0
    1.7383    0.0820    0.0368 C   0  0  0  0  0  0  0  0  0  0  0  0
   -5.0086   -2.1703    1.7524 H   0  0  0  0  0  0  0  0  0  0  0  0
   -5.8585   -0.6031    1.8099 H   0  0  0  0  0  0  0  0  0  0  0  0
   -5.7191   -1.4533    0.2260 H   0  0  0  0  0  0  0  0  0  0  0  0
   -3.3168   -0.5267    1.8595 H   0  0  0  0  0  0  0  0  0  0  0  0
   -4.2299    0.6083    0.8283 H   0  0  0  0  0  0  0  0  0  0  0  0
   -3.1078   -2.6763    0.6502 H   0  0  0  0  0  0  0  0  0  0  0  0
   -3.9371    2.4560   -0.6617 H   0  0  0  0  0  0  0  0  0  0  0  0
   -3.4154    2.2986   -2.3520 H   0  0  0  0  0  0  0  0  0  0  0  0
   -0.6342   -1.5119    0.3157 H   0  0  0  0  0  0  0  0  0  0  0  0
    1.6224    2.4676   -1.9123 H   0  0  0  0  0  0  0  0  0  0  0  0
    1.4656    3.1571   -0.2579 H   0  0  0  0  0  0  0  0  0  0  0  0
    4.3058    2.1474   -0.3986 H   0  0  0  0  0  0  0  0  0  0  0  0
    6.3578    1.0898    0.3154 H   0  0  0  0  0  0  0  0  0  0  0  0
    7.5696   -0.8105    1.2374 H   0  0  0  0  0  0  0  0  0  0  0  0
    6.3441   -2.8252    1.8487 H   0  0  0  0  0  0  0  0  0  0  0  0
    3.8723   -2.9230    1.5265 H   0  0  0  0  0  0  0  0  0  0  0  0
  1  2  1  0
  2  3  1  0
  3  4  1  1
  3  5  1  0
  5  6  2  0
  5  7  1  0
  7  8  1  0
  8  9  1  0
  9 10  2  0
 10 11  1  0
 11 12  2  0
 12 13  1  0
 13 14  1  0
 14 15  2  0
 13 16  1  0
 16 17  1  0
 17 18  2  0
 18 19  1  0
 19 20  2  0
 20 21  1  0
 21 22  2  0
 22 23  1  0
 23 24  2  0
 24 25  1  0
 25 26  2  0
 10  3  1  0
 26 12  1  0
 14  9  1  0
 26 17  1  0
 24 19  1  0
  1 27  1  0
  1 28  1  0
  1 29  1  0
  2 30  1  0
  2 31  1  0
  4 32  1  0
  8 33  1  0
  8 34  1  0
 11 35  1  0
 16 36  1  0
 16 37  1  0
 18 38  1  0
 20 39  1  0
 21 40  1  0
 22 41  1  0
 23 42  1  0
M  END
$$$$
