@<TRIPOS>MOLECULE
*****
 46 47 0 0 0
SMALL
GASTEIGER

@<TRIPOS>ATOM
      1 C           7.9142   -4.0712   -0.1656 C.3     1  UNL1       -0.0653
      2 C           7.4633   -2.6659   -0.0102 C.3     1  UNL1       -0.0556
      3 C           5.9421   -2.6127    0.1028 C.3     1  UNL1       -0.0493
      4 C           5.5699   -1.1368    0.1987 C.3     1  UNL1       -0.0277
      5 C           4.0758   -1.0697    0.3239 C.ar    1  UNL1       -0.0473
      6 C           3.3868   -1.1077   -0.8751 C.ar    1  UNL1       -0.0574
      7 C           1.9770   -0.9727   -0.7427 C.ar    1  UNL1       -0.0461
      8 C           1.3640   -0.8190    0.4589 C.ar    1  UNL1        0.0253
      9 C          -0.1120   -0.6464    0.4732 C.1     1  UNL1       -0.0605
     10 C          -1.2756   -0.5275    0.4730 C.1     1  UNL1       -0.0538
     11 C          -2.7354   -0.3926    0.4550 C.ar    1  UNL1        0.0641
     12 C          -3.6689   -1.2987    0.1290 C.ar    1  UNL1       -0.0372
     13 C          -4.9445   -0.9964    0.1298 C.ar    1  UNL1       -0.0269
     14 C          -5.3140    0.3047    0.4813 C.ar    1  UNL1        0.1436
     15 S          -6.8637    1.0314    0.5656 S.O2    1  UNL1        0.0651
     16 O          -7.1069    1.5664    1.9685 O.2     1  UNL1       -0.1525
     17 O          -7.9345    0.0359    0.2103 O.2     1  UNL1       -0.1525
     18 N          -6.9550    2.3157   -0.5679 N.3     1  UNL1       -0.1806
     19 C          -6.0003    3.3582   -0.3117 C.3     1  UNL1        0.0957
     20 C          -6.0327    4.4511   -1.2399 C.2     1  UNL1        0.2510
     21 O          -6.8291    4.4899   -2.2167 O.2     1  UNL1       -0.2723
     22 N          -5.1519    5.5640   -1.1161 N.am    1  UNL1       -0.1964
     23 O          -5.1758    6.5958   -1.9903 O.3     1  UNL1       -0.2952
     24 S          -3.6911    1.0136    0.8009 S.2     1  UNL1       -0.0601
     25 C           2.0872   -0.7917    1.6172 C.ar    1  UNL1       -0.0461
     26 C           3.4998   -0.9237    1.5069 C.ar    1  UNL1       -0.0574
     27 H           7.4891   -4.7214    0.6130 H       1  UNL1        0.0230
     28 H           7.5827   -4.5076   -1.1535 H       1  UNL1        0.0230
     29 H           9.0232   -4.1052   -0.0737 H       1  UNL1        0.0230
     30 H           7.8566   -2.2731    0.9634 H       1  UNL1        0.0263
     31 H           7.8136   -1.9870   -0.7904 H       1  UNL1        0.0263
     32 H           5.5331   -3.0646   -0.8154 H       1  UNL1        0.0268
     33 H           5.6246   -3.1273    1.0292 H       1  UNL1        0.0268
     34 H           5.9963   -0.6473    1.0780 H       1  UNL1        0.0313
     35 H           5.8969   -0.5883   -0.7115 H       1  UNL1        0.0313
     36 H           3.7966   -1.2261   -1.8486 H       1  UNL1        0.0621
     37 H           1.3974   -1.0023   -1.6595 H       1  UNL1        0.0630
     38 H          -3.3007   -2.3466   -0.1488 H       1  UNL1        0.0636
     39 H          -5.7876   -1.6825   -0.1258 H       1  UNL1        0.0643
     40 H          -7.9228    2.7141   -0.5870 H       1  UNL1        0.1486
     41 H          -6.1284    3.6752    0.7645 H       1  UNL1        0.0537
     42 H          -4.9786    2.8712   -0.3735 H       1  UNL1        0.0537
     43 H          -4.4600    5.5941   -0.3254 H       1  UNL1        0.1822
     44 H          -4.5549    7.3082   -1.7126 H       1  UNL1        0.2414
     45 H           1.6125   -0.6815    2.5629 H       1  UNL1        0.0630
     46 H           4.0219   -0.8961    2.4510 H       1  UNL1        0.0621
@<TRIPOS>BOND
     1     1     2    1
     2     2     3    1
     3     3     4    1
     4     4     5    1
     5     5     6   ar
     6     6     7   ar
     7     7     8   ar
     8     8     9    1
     9     9    10    3
    10    10    11    1
    11    11    12   ar
    12    12    13   ar
    13    13    14   ar
    14    14    15    1
    15    15    16    2
    16    15    17    2
    17    15    18    1
    18    18    19    1
    19    19    20    1
    20    20    21    2
    21    20    22   am
    22    22    23    1
    23    14    24   ar
    24     8    25   ar
    25    25    26   ar
    26    26     5   ar
    27    24    11   ar
    28     1    27    1
    29     1    28    1
    30     1    29    1
    31     2    30    1
    32     2    31    1
    33     3    32    1
    34     3    33    1
    35     4    34    1
    36     4    35    1
    37     6    36    1
    38     7    37    1
    39    12    38    1
    40    13    39    1
    41    18    40    1
    42    19    41    1
    43    19    42    1
    44    22    43    1
    45    23    44    1
    46    25    45    1
    47    26    46    1
