
     RDKit          3D

 46 47  0  0  0  0  0  0  0  0999 V2000
    7.9142   -4.0712   -0.1656 C   0  0  0  0  0  0  0  0  0  0  0  0
    7.4633   -2.6659   -0.0102 C   0  0  0  0  0  0  0  0  0  0  0  0
    5.9421   -2.6127    0.1028 C   0  0  0  0  0  0  0  0  0  0  0  0
    5.5699   -1.1368    0.1987 C   0  0  0  0  0  0  0  0  0  0  0  0
    4.0758   -1.0697    0.3239 C   0  0  0  0  0  0  0  0  0  0  0  0
    3.3868   -1.1077   -0.8751 C   0  0  0  0  0  0  0  0  0  0  0  0
    1.9770   -0.9727   -0.7427 C   0  0  0  0  0  0  0  0  0  0  0  0
    1.3640   -0.8190    0.4589 C   0  0  0  0  0  0  0  0  0  0  0  0
   -0.1120   -0.6464    0.4732 C   0  0  0  0  0  0  0  0  0  0  0  0
   -1.2756   -0.5275    0.4730 C   0  0  0  0  0  0  0  0  0  0  0  0
   -2.7354   -0.3926    0.4550 C   0  0  0  0  0  0  0  0  0  0  0  0
   -3.6689   -1.2987    0.1290 C   0  0  0  0  0  0  0  0  0  0  0  0
   -4.9445   -0.9964    0.1298 C   0  0  0  0  0  0  0  0  0  0  0  0
   -5.3140    0.3047    0.4813 C   0  0  0  0  0  0  0  0  0  0  0  0
   -6.8637    1.0314    0.5656 S   0  0  0  0  0  6  0  0  0  0  0  0
   -7.1069    1.5664    1.9685 O   0  0  0  0  0  0  0  0  0  0  0  0
   -7.9345    0.0359    0.2103 O   0  0  0  0  0  0  0  0  0  0  0  0
   -6.9550    2.3157   -0.5679 N   0  0  0  0  0  0  0  0  0  0  0  0
   -6.0003    3.3582   -0.3117 C   0  0  0  0  0  0  0  0  0  0  0  0
   -6.0327    4.4511   -1.2399 C   0  0  0  0  0  0  0  0  0  0  0  0
   -6.8291    4.4899   -2.2167 O   0  0  0  0  0  0  0  0  0  0  0  0
   -5.1519    5.5640   -1.1161 N   0  0  0  0  0  0  0  0  0  0  0  0
   -5.1758    6.5958   -1.9903 O   0  0  0  0  0  0  0  0  0  0  0  0
   -3.6911    1.0136    0.8009 S   0  0  0  0  0  0  0  0  0  0  0  0
    2.0872   -0.7917    1.6172 C   0  0  0  0  0  0  0  0  0  0  0  0
    3.4998   -0.9237    1.5069 C   0  0  0  0  0  0  0  0  0  0  0  0
    7.4891   -4.7214    0.6130 H   0  0  0  0  0  0  0  0  0  0  0  0
    7.5827   -4.5076   -1.1535 H   0  0  0  0  0  0  0  0  0  0  0  0
    9.0232   -4.1052   -0.0737 H   0  0  0  0  0  0  0  0  0  0  0  0
    7.8566   -2.2731    0.9634 H   0  0  0  0  0  0  0  0  0  0  0  0
    7.8136   -1.9870   -0.7904 H   0  0  0  0  0  0  0  0  0  0  0  0
    5.5331   -3.0646   -0.8154 H   0  0  0  0  0  0  0  0  0  0  0  0
    5.6246   -3.1273    1.0292 H   0  0  0  0  0  0  0  0  0  0  0  0
    5.9963   -0.6473    1.0780 H   0  0  0  0  0  0  0  0  0  0  0  0
    5.8969   -0.5883   -0.7115 H   0  0  0  0  0  0  0  0  0  0  0  0
    3.7966   -1.2261   -1.8486 H   0  0  0  0  0  0  0  0  0  0  0  0
    1.3974   -1.0023   -1.6595 H   0  0  0  0  0  0  0  0  0  0  0  0
   -3.3007   -2.3466   -0.1488 H   0  0  0  0  0  0  0  0  0  0  0  0
   -5.7876   -1.6825   -0.1258 H   0  0  0  0  0  0  0  0  0  0  0  0
   -7.9228    2.7141   -0.5870 H   0  0  0  0  0  0  0  0  0  0  0  0
   -6.1284    3.6752    0.7645 H   0  0  0  0  0  0  0  0  0  0  0  0
   -4.9786    2.8712   -0.3735 H   0  0  0  0  0  0  0  0  0  0  0  0
   -4.4600    5.5941   -0.3254 H   0  0  0  0  0  0  0  0  0  0  0  0
   -4.5549    7.3082   -1.7126 H   0  0  0  0  0  0  0  0  0  0  0  0
    1.6125   -0.6815    2.5629 H   0  0  0  0  0  0  0  0  0  0  0  0
    4.0219   -0.8961    2.4510 H   0  0  0  0  0  0  0  0  0  0  0  0
  1  2  1  0
  2  3  1  0
  3  4  1  0
  4  5  1  0
  5  6  2  0
  6  7  1  0
  7  8  2  0
  8  9  1  0
  9 10  3  0
 10 11  1  0
 11 12  2  0
 12 13  1  0
 13 14  2  0
 14 15  1  0
 15 16  2  0
 15 17  2  0
 15 18  1  0
 18 19  1  0
 19 20  1  0
 20 21  2  0
 20 22  1  0
 22 23  1  0
 14 24  1  0
  8 25  1  0
 25 26  2  0
 26  5  1  0
 24 11  1  0
  1 27  1  0
  1 28  1  0
  1 29  1  0
  2 30  1  0
  2 31  1  0
  3 32  1  0
  3 33  1  0
  4 34  1  0
  4 35  1  0
  6 36  1  0
  7 37  1  0
 12 38  1  0
 13 39  1  0
 18 40  1  0
 19 41  1  0
 19 42  1  0
 22 43  1  0
 23 44  1  0
 25 45  1  0
 26 46  1  0
M  END
$$$$
