@<TRIPOS>MOLECULE
*****
 38 40 0 0 0
SMALL
GASTEIGER

@<TRIPOS>ATOM
      1 O          -0.8728   -2.9794   -1.4701 O.2     1  UNL1       -0.4087
      2 N           0.2727   -2.2753   -1.1842 N.2     1  UNL1       -0.0864
      3 C           0.1789   -1.1168   -0.5923 C.2     1  UNL1        0.1181
      4 C           1.3336   -0.2883   -0.2440 C.ar    1  UNL1        0.0153
      5 C           2.7114   -0.4323   -0.4015 C.ar    1  UNL1       -0.0100
      6 C           3.5358    0.5806    0.0604 C.ar    1  UNL1        0.1220
      7 O           4.9202    0.4721   -0.0794 O.3     1  UNL1       -0.4808
      8 C           5.5658   -0.6284   -0.6759 C.3     1  UNL1        0.1857
      9 C           7.0255   -0.3516   -0.6254 C.2     1  UNL1        0.3427
     10 O           8.0278   -1.1842   -1.1082 O.3     1  UNL1       -0.4783
     11 O           7.3955    0.7415   -0.0951 O.2     1  UNL1       -0.2472
     12 C           3.0663    1.7292    0.6704 C.ar    1  UNL1       -0.0193
     13 C           1.7004    1.8151    0.7977 C.ar    1  UNL1       -0.0499
     14 C           0.8113    0.8520    0.3650 C.ar    1  UNL1       -0.0077
     15 C          -0.6525    0.7736    0.4152 C.ar    1  UNL1       -0.0077
     16 C          -1.0383   -0.4314   -0.1708 C.ar    1  UNL1        0.0153
     17 C          -2.3727   -0.7805   -0.2654 C.ar    1  UNL1       -0.0100
     18 C          -3.2778    0.1333    0.2525 C.ar    1  UNL1        0.1220
     19 O          -4.6376   -0.1712    0.1820 O.3     1  UNL1       -0.4808
     20 C          -5.6579    0.6786    0.6747 C.3     1  UNL1        0.1857
     21 C          -6.9560   -0.0150    0.4035 C.2     1  UNL1        0.3427
     22 O          -8.2113    0.4640    0.7231 O.3     1  UNL1       -0.4783
     23 O          -7.0895   -1.1498   -0.1626 O.2     1  UNL1       -0.2472
     24 C          -2.9451    1.3364    0.8408 C.ar    1  UNL1       -0.0193
     25 C          -1.6053    1.6569    0.9207 C.ar    1  UNL1       -0.0499
     26 H          -1.1246   -3.3169   -2.3713 H       1  UNL1        0.3278
     27 H           3.1180   -1.3161   -0.8736 H       1  UNL1        0.0661
     28 H           5.2581   -0.7822   -1.7399 H       1  UNL1        0.0815
     29 H           5.3738   -1.5459   -0.0567 H       1  UNL1        0.0815
     30 H           8.8905   -0.8086   -1.4932 H       1  UNL1        0.2952
     31 H           3.7372    2.5051    1.0219 H       1  UNL1        0.0654
     32 H           1.3144    2.7124    1.2754 H       1  UNL1        0.0625
     33 H          -2.6833   -1.7062   -0.7148 H       1  UNL1        0.0661
     34 H          -5.5266    0.8787    1.7541 H       1  UNL1        0.0815
     35 H          -5.7099    1.6538    0.1398 H       1  UNL1        0.0815
     36 H          -8.8629   -0.1316    1.2267 H       1  UNL1        0.2952
     37 H          -3.7042    2.0005    1.2235 H       1  UNL1        0.0654
     38 H          -1.3089    2.5955    1.3773 H       1  UNL1        0.0625
@<TRIPOS>BOND
     1     1     2    1
     2     2     3    2
     3     3     4    1
     4     4     5   ar
     5     5     6   ar
     6     6     7    1
     7     7     8    1
     8     8     9    1
     9     9    10    1
    10     9    11    2
    11     6    12   ar
    12    12    13   ar
    13    13    14   ar
    14    14    15    1
    15    15    16   ar
    16    16    17   ar
    17    17    18   ar
    18    18    19    1
    19    19    20    1
    20    20    21    1
    21    21    22    1
    22    21    23    2
    23    18    24   ar
    24    24    25   ar
    25    16     3    1
    26    14     4   ar
    27    25    15   ar
    28     1    26    1
    29     5    27    1
    30     8    28    1
    31     8    29    1
    32    10    30    1
    33    12    31    1
    34    13    32    1
    35    17    33    1
    36    20    34    1
    37    20    35    1
    38    22    36    1
    39    24    37    1
    40    25    38    1
