
     RDKit          3D

 38 40  0  0  0  0  0  0  0  0999 V2000
   -0.8728   -2.9794   -1.4701 O   0  0  0  0  0  0  0  0  0  0  0  0
    0.2727   -2.2753   -1.1842 N   0  0  0  0  0  0  0  0  0  0  0  0
    0.1789   -1.1168   -0.5923 C   0  0  0  0  0  0  0  0  0  0  0  0
    1.3336   -0.2883   -0.2440 C   0  0  0  0  0  0  0  0  0  0  0  0
    2.7114   -0.4323   -0.4015 C   0  0  0  0  0  0  0  0  0  0  0  0
    3.5358    0.5806    0.0604 C   0  0  0  0  0  0  0  0  0  0  0  0
    4.9202    0.4721   -0.0794 O   0  0  0  0  0  0  0  0  0  0  0  0
    5.5658   -0.6284   -0.6759 C   0  0  0  0  0  0  0  0  0  0  0  0
    7.0255   -0.3516   -0.6254 C   0  0  0  0  0  0  0  0  0  0  0  0
    8.0278   -1.1842   -1.1082 O   0  0  0  0  0  0  0  0  0  0  0  0
    7.3955    0.7415   -0.0951 O   0  0  0  0  0  0  0  0  0  0  0  0
    3.0663    1.7292    0.6704 C   0  0  0  0  0  0  0  0  0  0  0  0
    1.7004    1.8151    0.7977 C   0  0  0  0  0  0  0  0  0  0  0  0
    0.8113    0.8520    0.3650 C   0  0  0  0  0  0  0  0  0  0  0  0
   -0.6525    0.7736    0.4152 C   0  0  0  0  0  0  0  0  0  0  0  0
   -1.0383   -0.4314   -0.1708 C   0  0  0  0  0  0  0  0  0  0  0  0
   -2.3727   -0.7805   -0.2654 C   0  0  0  0  0  0  0  0  0  0  0  0
   -3.2778    0.1333    0.2525 C   0  0  0  0  0  0  0  0  0  0  0  0
   -4.6376   -0.1712    0.1820 O   0  0  0  0  0  0  0  0  0  0  0  0
   -5.6579    0.6786    0.6747 C   0  0  0  0  0  0  0  0  0  0  0  0
   -6.9560   -0.0150    0.4035 C   0  0  0  0  0  0  0  0  0  0  0  0
   -8.2113    0.4640    0.7231 O   0  0  0  0  0  0  0  0  0  0  0  0
   -7.0895   -1.1498   -0.1626 O   0  0  0  0  0  0  0  0  0  0  0  0
   -2.9451    1.3364    0.8408 C   0  0  0  0  0  0  0  0  0  0  0  0
   -1.6053    1.6569    0.9207 C   0  0  0  0  0  0  0  0  0  0  0  0
   -1.1246   -3.3169   -2.3713 H   0  0  0  0  0  0  0  0  0  0  0  0
    3.1180   -1.3161   -0.8736 H   0  0  0  0  0  0  0  0  0  0  0  0
    5.2581   -0.7822   -1.7399 H   0  0  0  0  0  0  0  0  0  0  0  0
    5.3738   -1.5459   -0.0567 H   0  0  0  0  0  0  0  0  0  0  0  0
    8.8905   -0.8086   -1.4932 H   0  0  0  0  0  0  0  0  0  0  0  0
    3.7372    2.5051    1.0219 H   0  0  0  0  0  0  0  0  0  0  0  0
    1.3144    2.7124    1.2754 H   0  0  0  0  0  0  0  0  0  0  0  0
   -2.6833   -1.7062   -0.7148 H   0  0  0  0  0  0  0  0  0  0  0  0
   -5.5266    0.8787    1.7541 H   0  0  0  0  0  0  0  0  0  0  0  0
   -5.7099    1.6538    0.1398 H   0  0  0  0  0  0  0  0  0  0  0  0
   -8.8629   -0.1316    1.2267 H   0  0  0  0  0  0  0  0  0  0  0  0
   -3.7042    2.0005    1.2235 H   0  0  0  0  0  0  0  0  0  0  0  0
   -1.3089    2.5955    1.3773 H   0  0  0  0  0  0  0  0  0  0  0  0
  1  2  1  0
  2  3  2  3
  3  4  1  0
  4  5  2  0
  5  6  1  0
  6  7  1  0
  7  8  1  0
  8  9  1  0
  9 10  1  0
  9 11  2  0
  6 12  2  0
 12 13  1  0
 13 14  2  0
 14 15  1  0
 15 16  2  0
 16 17  1  0
 17 18  2  0
 18 19  1  0
 19 20  1  0
 20 21  1  0
 21 22  1  0
 21 23  2  0
 18 24  1  0
 24 25  2  0
 16  3  1  0
 14  4  1  0
 25 15  1  0
  1 26  1  0
  5 27  1  0
  8 28  1  0
  8 29  1  0
 10 30  1  0
 12 31  1  0
 13 32  1  0
 17 33  1  0
 20 34  1  0
 20 35  1  0
 22 36  1  0
 24 37  1  0
 25 38  1  0
M  END
$$$$
