@<TRIPOS>MOLECULE
*****
 43 45 0 0 0
SMALL
GASTEIGER

@<TRIPOS>ATOM
      1 O           4.4677   -2.5454    2.3622 O.2     1  UNL1       -0.1498
      2 S           4.4099   -1.2760    1.5272 S.O2    1  UNL1        0.0766
      3 O           5.0052   -0.1893    2.3839 O.2     1  UNL1       -0.1498
      4 N           5.4005   -1.5035    0.1382 N.pl3   1  UNL1       -0.1937
      5 C           6.4518   -0.5183   -0.0661 C.ar    1  UNL1        0.1774
      6 N           6.9489    0.4335    0.3596 N.ar    1  UNL1       -0.2321
      7 C           7.9624    1.1389   -0.1050 C.ar    1  UNL1        0.0369
      8 C           8.4914    0.6641   -1.2613 C.ar    1  UNL1       -0.0030
      9 S           7.5281   -0.7585   -1.6270 S.2     1  UNL1       -0.0594
     10 C           2.7769   -0.9401    1.0583 C.ar    1  UNL1        0.1450
     11 C           2.1912    0.2663    1.3428 C.ar    1  UNL1       -0.0121
     12 C           0.9158    0.5152    0.9687 C.ar    1  UNL1        0.0638
     13 CL          0.1732    2.0698    1.3339 Cl      1  UNL1       -0.0816
     14 C           0.1340   -0.4700    0.2638 C.ar    1  UNL1        0.0485
     15 N          -1.1218   -0.0344   -0.0451 N.pl3   1  UNL1       -0.3426
     16 C          -2.3862    0.4043   -0.3562 C.3     1  UNL1        0.0094
     17 C          -3.4601   -0.2956    0.4394 C.3     1  UNL1       -0.0334
     18 C          -4.8487    0.0948    0.1521 C.3     1  UNL1       -0.0259
     19 C          -5.3270   -0.1310   -1.2531 C.3     1  UNL1       -0.0364
     20 C          -6.3862    0.9374   -1.4376 C.3     1  UNL1       -0.0038
     21 N          -6.4467    1.7065   -0.2338 N.3     1  UNL1       -0.3157
     22 C          -5.1648    1.5417    0.4657 C.3     1  UNL1       -0.0012
     23 C           0.7663   -1.6441    0.0110 C.ar    1  UNL1       -0.0022
     24 C           2.0748   -1.8991    0.3948 C.ar    1  UNL1        0.1517
     25 F           2.6341   -3.1209    0.0914 F       1  UNL1       -0.2034
     26 H           5.2408   -2.2903   -0.4846 H       1  UNL1        0.1758
     27 H           8.3415    2.0407    0.4190 H       1  UNL1        0.0835
     28 H           9.3657    1.0966   -1.8629 H       1  UNL1        0.0710
     29 H           2.7967    1.0249    1.8802 H       1  UNL1        0.0653
     30 H          -1.4482   -1.2304   -0.6013 H       1  UNL1        0.1461
     31 H          -2.6715    0.4922   -1.4359 H       1  UNL1        0.0461
     32 H          -2.4628    1.4969   -0.0176 H       1  UNL1        0.0461
     33 H          -3.2761   -0.1216    1.5328 H       1  UNL1        0.0283
     34 H          -3.3218   -1.3914    0.2812 H       1  UNL1        0.0283
     35 H          -5.5166   -0.5196    0.8252 H       1  UNL1        0.0314
     36 H          -4.5872   -0.0028   -2.0380 H       1  UNL1        0.0281
     37 H          -5.7957   -1.1536   -1.3424 H       1  UNL1        0.0281
     38 H          -6.2408    1.5610   -2.3289 H       1  UNL1        0.0424
     39 H          -7.3847    0.4208   -1.5350 H       1  UNL1        0.0424
     40 H          -6.6660    2.7137   -0.3579 H       1  UNL1        0.1219
     41 H          -5.4214    1.6483    1.5471 H       1  UNL1        0.0427
     42 H          -4.3920    2.2282    0.1078 H       1  UNL1        0.0427
     43 H           0.2492   -2.4599   -0.5292 H       1  UNL1        0.0666
@<TRIPOS>BOND
     1     1     2    2
     2     2     3    2
     3     2     4    1
     4     4     5    1
     5     5     6   ar
     6     6     7   ar
     7     7     8   ar
     8     8     9   ar
     9     2    10    1
    10    10    11   ar
    11    11    12   ar
    12    12    13    1
    13    12    14   ar
    14    14    15    1
    15    15    16    1
    16    16    17    1
    17    17    18    1
    18    18    19    1
    19    19    20    1
    20    20    21    1
    21    21    22    1
    22    14    23   ar
    23    23    24   ar
    24    24    25    1
    25     9     5   ar
    26    24    10   ar
    27    22    18    1
    28     4    26    1
    29     7    27    1
    30     8    28    1
    31    11    29    1
    32    15    30    1
    33    16    31    1
    34    16    32    1
    35    17    33    1
    36    17    34    1
    37    18    35    1
    38    19    36    1
    39    19    37    1
    40    20    38    1
    41    20    39    1
    42    21    40    1
    43    22    41    1
    44    22    42    1
    45    23    43    1
