@<TRIPOS>MOLECULE
*****
 64 68 0 0 0
SMALL
GASTEIGER

@<TRIPOS>ATOM
      1 C          10.8748   -0.1715    0.3920 C.3     1  UNL1        0.0790
      2 O           9.8543   -0.9513   -0.1542 O.3     1  UNL1       -0.4914
      3 C           8.5462   -0.5349   -0.0906 C.ar    1  UNL1        0.1635
      4 C           8.2274    0.6495    0.5088 C.ar    1  UNL1        0.0098
      5 C           6.8798    1.0137    0.5394 C.ar    1  UNL1        0.0782
      6 N           6.5045    2.1592    1.1110 N.ar    1  UNL1       -0.2546
      7 C           5.2324    2.5435    1.1618 C.ar    1  UNL1        0.0318
      8 C           4.2303    1.7672    0.6198 C.ar    1  UNL1       -0.0006
      9 C           4.5553    0.5804    0.0202 C.ar    1  UNL1        0.1393
     10 O           3.6223   -0.2839   -0.5582 O.3     1  UNL1       -0.4524
     11 C           2.2801    0.0275   -0.4998 C.ar    1  UNL1        0.1636
     12 C           1.4974    0.2623   -1.6112 C.ar    1  UNL1       -0.0147
     13 C           0.1540    0.5718   -1.5423 C.ar    1  UNL1       -0.0368
     14 C          -0.4330    0.6499   -0.3060 C.ar    1  UNL1        0.0366
     15 N          -1.8090    0.9643   -0.1692 N.am    1  UNL1       -0.2812
     16 C          -2.8186   -0.0111   -0.1500 C.2     1  UNL1        0.2553
     17 O          -2.4394   -1.2193   -0.2634 O.2     1  UNL1       -0.2696
     18 C          -4.2398    0.2121   -0.0154 C.ar    1  UNL1        0.1235
     19 C          -4.9336    1.3885    0.1330 C.ar    1  UNL1        0.0504
     20 C          -4.3901    2.7865    0.2002 C.3     1  UNL1       -0.0219
     21 N          -6.2398    1.0615    0.2129 N.ar    1  UNL1       -0.2833
     22 C          -7.3386    2.0154    0.3764 C.3     1  UNL1        0.0291
     23 N          -6.4375   -0.2368    0.1270 N.ar    1  UNL1       -0.2166
     24 C          -7.6875   -0.9282    0.1740 C.ar    1  UNL1        0.0673
     25 C          -8.5705   -0.9108   -0.8803 C.ar    1  UNL1       -0.0362
     26 C          -9.7784   -1.6000   -0.7890 C.ar    1  UNL1       -0.0598
     27 C         -10.1336   -2.3136    0.3366 C.ar    1  UNL1       -0.0616
     28 C          -9.2429   -2.3271    1.3913 C.ar    1  UNL1       -0.0598
     29 C          -8.0373   -1.6400    1.3021 C.ar    1  UNL1       -0.0362
     30 C          -5.2271   -0.7857   -0.0140 C.ar    1  UNL1        0.2843
     31 O          -5.0099   -2.0283   -0.1291 O.2     1  UNL1       -0.2650
     32 C           0.3180    0.4216    0.8177 C.ar    1  UNL1       -0.0015
     33 C           1.6713    0.1103    0.7321 C.ar    1  UNL1        0.1672
     34 F           2.3590   -0.1196    1.8559 F       1  UNL1       -0.2016
     35 C           5.9020    0.2193   -0.0091 C.ar    1  UNL1        0.0463
     36 C           6.2578   -0.9752   -0.6094 C.ar    1  UNL1       -0.0036
     37 C           7.5718   -1.3529   -0.6514 C.ar    1  UNL1        0.1623
     38 O           7.9680   -2.5394   -1.2422 O.3     1  UNL1       -0.4914
     39 C           7.0042   -3.3886   -1.8181 C.3     1  UNL1        0.0790
     40 H          11.0411    0.6878   -0.3043 H       1  UNL1        0.0660
     41 H          10.6404    0.2677    1.3766 H       1  UNL1        0.0660
     42 H          11.8309   -0.7319    0.5260 H       1  UNL1        0.0660
     43 H           8.9436    1.3199    0.9581 H       1  UNL1        0.0677
     44 H           4.9794    3.4725    1.6317 H       1  UNL1        0.0831
     45 H           3.1871    2.0769    0.6471 H       1  UNL1        0.0670
     46 H           2.0078    0.1890   -2.5718 H       1  UNL1        0.0656
     47 H          -0.4149    0.7473   -2.4547 H       1  UNL1        0.0637
     48 H          -2.0450    1.9667   -0.0827 H       1  UNL1        0.1551
     49 H          -5.2826    3.4725    0.3753 H       1  UNL1        0.0293
     50 H          -3.7870    2.9278    1.1164 H       1  UNL1        0.0293
     51 H          -3.9484    3.1325   -0.7333 H       1  UNL1        0.0293
     52 H          -8.2737    1.5753   -0.0691 H       1  UNL1        0.0472
     53 H          -7.1667    2.9475   -0.1923 H       1  UNL1        0.0472
     54 H          -7.5627    2.2256    1.4266 H       1  UNL1        0.0472
     55 H          -8.2947   -0.3504   -1.7678 H       1  UNL1        0.0639
     56 H         -10.4444   -1.5653   -1.6308 H       1  UNL1        0.0618
     57 H         -11.0701   -2.8561    0.4250 H       1  UNL1        0.0618
     58 H          -9.4644   -2.8748    2.3146 H       1  UNL1        0.0618
     59 H          -7.3255   -1.6434    2.1292 H       1  UNL1        0.0639
     60 H          -0.1256    0.4773    1.8225 H       1  UNL1        0.0666
     61 H           5.4949   -1.6166   -1.0491 H       1  UNL1        0.0663
     62 H           7.5397   -4.1460   -2.4354 H       1  UNL1        0.0660
     63 H           6.2903   -2.8670   -2.4661 H       1  UNL1        0.0660
     64 H           6.5062   -3.9211   -0.9750 H       1  UNL1        0.0660
@<TRIPOS>BOND
     1     1     2    1
     2     2     3    1
     3     3     4   ar
     4     4     5   ar
     5     5     6   ar
     6     6     7   ar
     7     7     8   ar
     8     8     9   ar
     9     9    10    1
    10    10    11    1
    11    11    12   ar
    12    12    13   ar
    13    13    14   ar
    14    14    15    1
    15    15    16   am
    16    16    17    2
    17    16    18    1
    18    18    19   ar
    19    19    20    1
    20    19    21   ar
    21    21    22    1
    22    21    23   ar
    23    23    24    1
    24    24    25   ar
    25    25    26   ar
    26    26    27   ar
    27    27    28   ar
    28    28    29   ar
    29    23    30   ar
    30    30    31    2
    31    14    32   ar
    32    32    33   ar
    33    33    34    1
    34     9    35   ar
    35    35    36   ar
    36    36    37   ar
    37    37    38    1
    38    38    39    1
    39    37     3   ar
    40    35     5   ar
    41    33    11   ar
    42    30    18   ar
    43    29    24   ar
    44     1    40    1
    45     1    41    1
    46     1    42    1
    47     4    43    1
    48     7    44    1
    49     8    45    1
    50    12    46    1
    51    13    47    1
    52    15    48    1
    53    20    49    1
    54    20    50    1
    55    20    51    1
    56    22    52    1
    57    22    53    1
    58    22    54    1
    59    25    55    1
    60    26    56    1
    61    27    57    1
    62    28    58    1
    63    29    59    1
    64    32    60    1
    65    36    61    1
    66    39    62    1
    67    39    63    1
    68    39    64    1
