
     RDKit          3D

 64 68  0  0  0  0  0  0  0  0999 V2000
   10.8748   -0.1715    0.3920 C   0  0  0  0  0  0  0  0  0  0  0  0
    9.8543   -0.9513   -0.1542 O   0  0  0  0  0  0  0  0  0  0  0  0
    8.5462   -0.5349   -0.0906 C   0  0  0  0  0  0  0  0  0  0  0  0
    8.2274    0.6495    0.5088 C   0  0  0  0  0  0  0  0  0  0  0  0
    6.8798    1.0137    0.5394 C   0  0  0  0  0  0  0  0  0  0  0  0
    6.5045    2.1592    1.1110 N   0  0  0  0  0  0  0  0  0  0  0  0
    5.2324    2.5435    1.1618 C   0  0  0  0  0  0  0  0  0  0  0  0
    4.2303    1.7672    0.6198 C   0  0  0  0  0  0  0  0  0  0  0  0
    4.5553    0.5804    0.0202 C   0  0  0  0  0  0  0  0  0  0  0  0
    3.6223   -0.2839   -0.5582 O   0  0  0  0  0  0  0  0  0  0  0  0
    2.2801    0.0275   -0.4998 C   0  0  0  0  0  0  0  0  0  0  0  0
    1.4974    0.2623   -1.6112 C   0  0  0  0  0  0  0  0  0  0  0  0
    0.1540    0.5718   -1.5423 C   0  0  0  0  0  0  0  0  0  0  0  0
   -0.4330    0.6499   -0.3060 C   0  0  0  0  0  0  0  0  0  0  0  0
   -1.8090    0.9643   -0.1692 N   0  0  0  0  0  0  0  0  0  0  0  0
   -2.8186   -0.0111   -0.1500 C   0  0  0  0  0  0  0  0  0  0  0  0
   -2.4394   -1.2193   -0.2634 O   0  0  0  0  0  0  0  0  0  0  0  0
   -4.2398    0.2121   -0.0154 C   0  0  0  0  0  0  0  0  0  0  0  0
   -4.9336    1.3885    0.1330 C   0  0  0  0  0  0  0  0  0  0  0  0
   -4.3901    2.7865    0.2002 C   0  0  0  0  0  0  0  0  0  0  0  0
   -6.2398    1.0615    0.2129 N   0  0  0  0  0  0  0  0  0  0  0  0
   -7.3386    2.0154    0.3764 C   0  0  0  0  0  0  0  0  0  0  0  0
   -6.4375   -0.2368    0.1270 N   0  0  0  0  0  0  0  0  0  0  0  0
   -7.6875   -0.9282    0.1740 C   0  0  0  0  0  0  0  0  0  0  0  0
   -8.5705   -0.9108   -0.8803 C   0  0  0  0  0  0  0  0  0  0  0  0
   -9.7784   -1.6000   -0.7890 C   0  0  0  0  0  0  0  0  0  0  0  0
  -10.1336   -2.3136    0.3366 C   0  0  0  0  0  0  0  0  0  0  0  0
   -9.2429   -2.3271    1.3913 C   0  0  0  0  0  0  0  0  0  0  0  0
   -8.0373   -1.6400    1.3021 C   0  0  0  0  0  0  0  0  0  0  0  0
   -5.2271   -0.7857   -0.0140 C   0  0  0  0  0  0  0  0  0  0  0  0
   -5.0099   -2.0283   -0.1291 O   0  0  0  0  0  0  0  0  0  0  0  0
    0.3180    0.4216    0.8177 C   0  0  0  0  0  0  0  0  0  0  0  0
    1.6713    0.1103    0.7321 C   0  0  0  0  0  0  0  0  0  0  0  0
    2.3590   -0.1196    1.8559 F   0  0  0  0  0  0  0  0  0  0  0  0
    5.9020    0.2193   -0.0091 C   0  0  0  0  0  0  0  0  0  0  0  0
    6.2578   -0.9752   -0.6094 C   0  0  0  0  0  0  0  0  0  0  0  0
    7.5718   -1.3529   -0.6514 C   0  0  0  0  0  0  0  0  0  0  0  0
    7.9680   -2.5394   -1.2422 O   0  0  0  0  0  0  0  0  0  0  0  0
    7.0042   -3.3886   -1.8181 C   0  0  0  0  0  0  0  0  0  0  0  0
   11.0411    0.6878   -0.3043 H   0  0  0  0  0  0  0  0  0  0  0  0
   10.6404    0.2677    1.3766 H   0  0  0  0  0  0  0  0  0  0  0  0
   11.8309   -0.7319    0.5260 H   0  0  0  0  0  0  0  0  0  0  0  0
    8.9436    1.3199    0.9581 H   0  0  0  0  0  0  0  0  0  0  0  0
    4.9794    3.4725    1.6317 H   0  0  0  0  0  0  0  0  0  0  0  0
    3.1871    2.0769    0.6471 H   0  0  0  0  0  0  0  0  0  0  0  0
    2.0078    0.1890   -2.5718 H   0  0  0  0  0  0  0  0  0  0  0  0
   -0.4149    0.7473   -2.4547 H   0  0  0  0  0  0  0  0  0  0  0  0
   -2.0450    1.9667   -0.0827 H   0  0  0  0  0  0  0  0  0  0  0  0
   -5.2826    3.4725    0.3753 H   0  0  0  0  0  0  0  0  0  0  0  0
   -3.7870    2.9278    1.1164 H   0  0  0  0  0  0  0  0  0  0  0  0
   -3.9484    3.1325   -0.7333 H   0  0  0  0  0  0  0  0  0  0  0  0
   -8.2737    1.5753   -0.0691 H   0  0  0  0  0  0  0  0  0  0  0  0
   -7.1667    2.9475   -0.1923 H   0  0  0  0  0  0  0  0  0  0  0  0
   -7.5627    2.2256    1.4266 H   0  0  0  0  0  0  0  0  0  0  0  0
   -8.2947   -0.3504   -1.7678 H   0  0  0  0  0  0  0  0  0  0  0  0
  -10.4444   -1.5653   -1.6308 H   0  0  0  0  0  0  0  0  0  0  0  0
  -11.0701   -2.8561    0.4250 H   0  0  0  0  0  0  0  0  0  0  0  0
   -9.4644   -2.8748    2.3146 H   0  0  0  0  0  0  0  0  0  0  0  0
   -7.3255   -1.6434    2.1292 H   0  0  0  0  0  0  0  0  0  0  0  0
   -0.1256    0.4773    1.8225 H   0  0  0  0  0  0  0  0  0  0  0  0
    5.4949   -1.6166   -1.0491 H   0  0  0  0  0  0  0  0  0  0  0  0
    7.5397   -4.1460   -2.4354 H   0  0  0  0  0  0  0  0  0  0  0  0
    6.2903   -2.8670   -2.4661 H   0  0  0  0  0  0  0  0  0  0  0  0
    6.5062   -3.9211   -0.9750 H   0  0  0  0  0  0  0  0  0  0  0  0
  1  2  1  0
  2  3  1  0
  3  4  2  0
  4  5  1  0
  5  6  2  0
  6  7  1  0
  7  8  2  0
  8  9  1  0
  9 10  1  0
 10 11  1  0
 11 12  2  0
 12 13  1  0
 13 14  2  0
 14 15  1  0
 15 16  1  0
 16 17  2  0
 16 18  1  0
 18 19  2  0
 19 20  1  0
 19 21  1  0
 21 22  1  0
 21 23  1  0
 23 24  1  0
 24 25  2  0
 25 26  1  0
 26 27  2  0
 27 28  1  0
 28 29  2  0
 23 30  1  0
 30 31  2  0
 14 32  1  0
 32 33  2  0
 33 34  1  0
  9 35  2  0
 35 36  1  0
 36 37  2  0
 37 38  1  0
 38 39  1  0
 37  3  1  0
 35  5  1  0
 33 11  1  0
 30 18  1  0
 29 24  1  0
  1 40  1  0
  1 41  1  0
  1 42  1  0
  4 43  1  0
  7 44  1  0
  8 45  1  0
 12 46  1  0
 13 47  1  0
 15 48  1  0
 20 49  1  0
 20 50  1  0
 20 51  1  0
 22 52  1  0
 22 53  1  0
 22 54  1  0
 25 55  1  0
 26 56  1  0
 27 57  1  0
 28 58  1  0
 29 59  1  0
 32 60  1  0
 36 61  1  0
 39 62  1  0
 39 63  1  0
 39 64  1  0
M  END
$$$$
