@<TRIPOS>MOLECULE
*****
 57 61 0 0 0
SMALL
GASTEIGER

@<TRIPOS>ATOM
      1 C           3.8780    1.7302   -1.9631 C.3     1  UNL1        0.0153
      2 N           2.8644    0.8984   -1.3143 N.ar    1  UNL1       -0.3093
      3 C           1.5671    1.2424   -1.2994 C.ar    1  UNL1        0.2773
      4 O           1.2049    2.2881   -1.8507 O.2     1  UNL1       -0.2654
      5 C           0.6478    0.4164   -0.6656 C.ar    1  UNL1        0.1363
      6 C           1.0753   -0.7465   -0.0606 C.ar    1  UNL1        0.1053
      7 N           0.0312   -1.3575    0.4582 N.ar    1  UNL1       -0.2134
      8 C          -1.1157   -0.6308    0.2193 C.ar    1  UNL1        0.1997
      9 N          -2.4126   -1.0716    0.5902 N.pl3   1  UNL1       -0.2995
     10 C          -3.6712   -0.4913    0.3041 C.3     1  UNL1        0.0149
     11 C          -4.7774   -1.3315    0.9888 C.3     1  UNL1       -0.0357
     12 C          -4.7175   -2.7707    0.5600 C.3     1  UNL1       -0.0349
     13 C          -3.2946   -3.2942    0.5340 C.3     1  UNL1        0.0208
     14 N          -2.7656   -3.2548   -0.8178 N.3     1  UNL1       -0.3259
     15 C          -2.4860   -2.3287    1.3753 C.3     1  UNL1        0.0300
     16 N          -0.7026    0.4469   -0.4637 N.ar    1  UNL1       -0.3030
     17 C          -1.5050    1.5656   -0.8573 C.3     1  UNL1        0.0530
     18 C          -1.3765    2.8080   -0.0750 C.ar    1  UNL1       -0.0067
     19 C          -1.1299    4.0164   -0.7604 C.ar    1  UNL1       -0.0202
     20 C          -1.0880    5.2378   -0.1446 C.ar    1  UNL1        0.1238
     21 F          -0.8473    6.3764   -0.8393 F       1  UNL1       -0.2055
     22 C          -1.2923    5.3420    1.2200 C.ar    1  UNL1       -0.0251
     23 C          -1.5307    4.2028    1.9122 C.ar    1  UNL1       -0.0404
     24 C          -1.5696    2.9541    1.2658 C.ar    1  UNL1        0.0460
     25 CL         -1.8018    1.5971    2.3414 Cl      1  UNL1       -0.0832
     26 C           2.4134   -1.0604   -0.0996 C.ar    1  UNL1        0.0263
     27 C           2.8932   -2.2101    0.4928 C.ar    1  UNL1       -0.0497
     28 C           4.2467   -2.5333    0.4597 C.ar    1  UNL1       -0.0470
     29 C           5.1591   -1.7124   -0.1693 C.ar    1  UNL1        0.0608
     30 C           6.5824   -2.0490   -0.2041 C.2     1  UNL1        0.3369
     31 O           7.3676   -1.2623   -0.7897 O.2     1  UNL1       -0.2451
     32 O           7.1007   -3.1839    0.3734 O.3     1  UNL1       -0.4771
     33 C           4.6826   -0.5627   -0.7623 C.ar    1  UNL1       -0.0235
     34 C           3.3364   -0.2339   -0.7334 C.ar    1  UNL1        0.0546
     35 H           4.4493    1.1827   -2.7259 H       1  UNL1        0.0457
     36 H           3.3392    2.5432   -2.4755 H       1  UNL1        0.0457
     37 H           4.5198    2.1130   -1.1325 H       1  UNL1        0.0457
     38 H          -3.9390   -0.5901   -0.7877 H       1  UNL1        0.0464
     39 H          -3.8404    0.5209    0.6596 H       1  UNL1        0.0464
     40 H          -4.7549   -1.1654    2.0690 H       1  UNL1        0.0281
     41 H          -5.7293   -0.9184    0.5374 H       1  UNL1        0.0281
     42 H          -5.2699   -3.3708    1.3253 H       1  UNL1        0.0281
     43 H          -5.1793   -2.8988   -0.4277 H       1  UNL1        0.0281
     44 H          -3.2526   -4.3023    0.9630 H       1  UNL1        0.0474
     45 H          -3.5342   -3.0447   -1.5139 H       1  UNL1        0.1185
     46 H          -2.0126   -2.5806   -0.9635 H       1  UNL1        0.1185
     47 H          -1.4647   -2.6924    1.5216 H       1  UNL1        0.0480
     48 H          -2.9634   -2.0544    2.3263 H       1  UNL1        0.0480
     49 H          -1.1490    1.8183   -1.9248 H       1  UNL1        0.0543
     50 H          -2.5646    1.3358   -1.0090 H       1  UNL1        0.0543
     51 H          -0.9585    4.0165   -1.8414 H       1  UNL1        0.0650
     52 H          -1.2667    6.2879    1.7355 H       1  UNL1        0.0647
     53 H          -1.6927    4.2849    2.9865 H       1  UNL1        0.0633
     54 H           2.2206   -2.9117    1.0123 H       1  UNL1        0.0625
     55 H           4.6326   -3.4422    0.9270 H       1  UNL1        0.0626
     56 H           8.0466   -3.2351    0.7613 H       1  UNL1        0.2954
     57 H           5.3969    0.0668   -1.2483 H       1  UNL1        0.0646
@<TRIPOS>BOND
     1     1     2    1
     2     2     3   ar
     3     3     4    2
     4     3     5   ar
     5     5     6   ar
     6     6     7   ar
     7     7     8   ar
     8     8     9    1
     9     9    10    1
    10    10    11    1
    11    11    12    1
    12    12    13    1
    13    13    14    1
    14    13    15    1
    15     8    16   ar
    16    16    17    1
    17    17    18    1
    18    18    19   ar
    19    19    20   ar
    20    20    21    1
    21    20    22   ar
    22    22    23   ar
    23    23    24   ar
    24    24    25    1
    25     6    26   ar
    26    26    27   ar
    27    27    28   ar
    28    28    29   ar
    29    29    30    1
    30    30    31    2
    31    30    32    1
    32    29    33   ar
    33    33    34   ar
    34    34     2   ar
    35    16     5   ar
    36    24    18   ar
    37    34    26   ar
    38    15     9    1
    39     1    35    1
    40     1    36    1
    41     1    37    1
    42    10    38    1
    43    10    39    1
    44    11    40    1
    45    11    41    1
    46    12    42    1
    47    12    43    1
    48    13    44    1
    49    14    45    1
    50    14    46    1
    51    15    47    1
    52    15    48    1
    53    17    49    1
    54    17    50    1
    55    19    51    1
    56    22    52    1
    57    23    53    1
    58    27    54    1
    59    28    55    1
    60    32    56    1
    61    33    57    1
