@<TRIPOS>MOLECULE
*****
 41 43 0 0 0
SMALL
GASTEIGER

@<TRIPOS>ATOM
      1 N           5.0148   -2.3766   -5.1149 N.1     1  UNL1       -0.1909
      2 C           4.5224   -2.1511   -4.1191 C.1     1  UNL1        0.0992
      3 C           3.8962   -1.8798   -2.8200 C.ar    1  UNL1        0.0519
      4 C           3.8343   -2.8413   -1.8417 C.ar    1  UNL1       -0.0426
      5 C           3.2494   -2.6136   -0.6187 C.ar    1  UNL1       -0.0393
      6 C           2.6895   -1.3703   -0.3320 C.ar    1  UNL1        0.0325
      7 N           2.0931   -1.1405    0.9392 N.pl3   1  UNL1       -0.2974
      8 C           0.7338   -0.6911    1.0302 C.ar    1  UNL1        0.1570
      9 N           0.1812    0.4973    0.8299 N.ar    1  UNL1       -0.1549
     10 N          -1.1194    0.4691    1.0294 N.ar    1  UNL1       -0.2624
     11 C          -2.0571    1.5473    0.8933 C.3     1  UNL1        0.0915
     12 C          -2.8473    1.8345    2.1562 C.3     1  UNL1        0.0712
     13 O          -3.5527    3.0341    2.0348 O.3     1  UNL1       -0.3776
     14 C          -3.7464    3.3826    0.7091 C.3     1  UNL1        0.0490
     15 C          -2.4588    3.8033    0.0613 C.3     1  UNL1       -0.0118
     16 C          -1.3719    2.8260    0.5211 C.3     1  UNL1        0.0727
     17 C          -0.3397    2.6988   -0.4906 C.1     1  UNL1        0.0681
     18 N           0.4811    2.6152   -1.2821 N.1     1  UNL1       -0.1962
     19 C          -1.4435   -0.7811    1.3747 C.ar    1  UNL1        0.0400
     20 C          -0.3127   -1.5488    1.3893 C.ar    1  UNL1        0.0957
     21 C          -0.1650   -2.9770    1.7102 C.2     1  UNL1        0.2464
     22 N          -1.3349   -3.6979    2.0739 N.am    1  UNL1       -0.3252
     23 O           0.9660   -3.5264    1.6598 O.2     1  UNL1       -0.2702
     24 C           2.7432   -0.4112   -1.2877 C.ar    1  UNL1       -0.0393
     25 C           3.3404   -0.6557   -2.5259 C.ar    1  UNL1       -0.0426
     26 H           4.2680   -3.8301   -2.0523 H       1  UNL1        0.0631
     27 H           3.2294   -3.3989    0.1054 H       1  UNL1        0.0636
     28 H           2.6152   -1.2894    1.8372 H       1  UNL1        0.1536
     29 H          -2.8061    1.3172    0.0938 H       1  UNL1        0.0580
     30 H          -3.5452    1.0181    2.4205 H       1  UNL1        0.0581
     31 H          -2.1479    1.9512    3.0046 H       1  UNL1        0.0581
     32 H          -4.3122    2.6315    0.1183 H       1  UNL1        0.0560
     33 H          -4.4402    4.2736    0.7363 H       1  UNL1        0.0560
     34 H          -2.1756    4.8441    0.2437 H       1  UNL1        0.0300
     35 H          -2.5612    3.6138   -1.0493 H       1  UNL1        0.0300
     36 H          -0.9217    3.2350    1.4731 H       1  UNL1        0.0476
     37 H          -2.4536   -1.1184    1.6065 H       1  UNL1        0.0835
     38 H          -1.1645   -4.5344    2.7087 H       1  UNL1        0.1453
     39 H          -2.2946   -3.4492    1.7597 H       1  UNL1        0.1453
     40 H           2.3336    0.5669   -1.1217 H       1  UNL1        0.0636
     41 H           3.3803    0.1231   -3.2863 H       1  UNL1        0.0631
@<TRIPOS>BOND
     1     1     2    3
     2     2     3    1
     3     3     4   ar
     4     4     5   ar
     5     5     6   ar
     6     6     7    1
     7     7     8    1
     8     8     9   ar
     9     9    10   ar
    10    10    11    1
    11    11    12    1
    12    12    13    1
    13    13    14    1
    14    14    15    1
    15    15    16    1
    16    16    17    1
    17    17    18    3
    18    10    19   ar
    19    19    20   ar
    20    20    21    1
    21    21    22   am
    22    21    23    2
    23     6    24   ar
    24    24    25   ar
    25    25     3   ar
    26    20     8   ar
    27    16    11    1
    28     4    26    1
    29     5    27    1
    30     7    28    1
    31    11    29    1
    32    12    30    1
    33    12    31    1
    34    14    32    1
    35    14    33    1
    36    15    34    1
    37    15    35    1
    38    16    36    1
    39    19    37    1
    40    22    38    1
    41    22    39    1
    42    24    40    1
    43    25    41    1
