@<TRIPOS>MOLECULE
*****
 49 50 0 0 0
SMALL
GASTEIGER

@<TRIPOS>ATOM
      1 C           0.9597    0.4996    1.4671 C.3     1  UNL1       -0.0345
      2 C           0.8939   -0.7209    0.5985 C.ar    1  UNL1        0.0124
      3 C          -0.3099   -1.0821    0.0406 C.ar    1  UNL1        0.0411
      4 N          -1.4404   -0.2706    0.3383 N.am    1  UNL1       -0.2688
      5 C          -2.7586   -0.4171   -0.1715 C.2     1  UNL1        0.3104
      6 O          -3.0211   -1.3229   -0.9781 O.2     1  UNL1       -0.2521
      7 N          -3.5010    0.6233    0.4415 N.am    1  UNL1       -0.2359
      8 C          -4.9044    0.3692   -0.1927 C.2     1  UNL1        0.2529
      9 O          -5.2891   -0.5341   -1.0101 O.2     1  UNL1       -0.2697
     10 C          -6.2393    1.1016   -0.0439 C.ar    1  UNL1        0.0555
     11 C          -7.2859    0.5009    0.6199 C.ar    1  UNL1       -0.0468
     12 C          -8.4342    1.2936    0.7025 C.ar    1  UNL1       -0.0426
     13 C          -8.5043    2.5512    0.1698 C.ar    1  UNL1        0.0424
     14 CL        -10.0187    3.4450    0.3468 Cl      1  UNL1       -0.0835
     15 C          -7.4088    3.1084   -0.4936 C.ar    1  UNL1       -0.0243
     16 C          -6.2466    2.3755   -0.6084 C.ar    1  UNL1        0.0544
     17 CL         -4.8477    3.0269   -1.4313 Cl      1  UNL1       -0.0827
     18 C          -0.3292   -2.2044   -0.7479 C.ar    1  UNL1       -0.0399
     19 C           0.7665   -2.9911   -1.0178 C.ar    1  UNL1       -0.0565
     20 C           1.9817   -2.6101   -0.4420 C.ar    1  UNL1       -0.0196
     21 C           2.0431   -1.4888    0.3547 C.ar    1  UNL1        0.1251
     22 O           3.1459   -0.9988    0.9788 O.3     1  UNL1       -0.4916
     23 C           4.4523   -1.3917    1.0151 C.3     1  UNL1        0.0896
     24 C           5.1316   -1.3246   -0.3051 C.3     1  UNL1       -0.0181
     25 C           5.1637    0.0721   -0.8901 C.3     1  UNL1       -0.0399
     26 C           5.8872    1.0443   -0.0093 C.3     1  UNL1        0.0449
     27 C           7.3097    0.6229    0.2032 C.2     1  UNL1        0.3047
     28 O           8.4727    1.1519   -0.3330 O.3     1  UNL1       -0.4806
     29 O           7.6028   -0.3571    0.9713 O.2     1  UNL1       -0.2510
     30 H           2.0119    0.7504    1.6957 H       1  UNL1        0.0279
     31 H           0.5205    1.3822    0.9983 H       1  UNL1        0.0279
     32 H           0.4635    0.2834    2.4131 H       1  UNL1        0.0279
     33 H          -1.3274    0.5171    0.9924 H       1  UNL1        0.1564
     34 H          -4.2407    0.4539    0.0797 H       1  UNL1        0.1594
     35 H          -7.1839   -0.4934    1.0235 H       1  UNL1        0.0626
     36 H          -9.2934    0.8792    1.2123 H       1  UNL1        0.0632
     37 H          -7.4719    4.0982   -0.9105 H       1  UNL1        0.0647
     38 H          -1.2223   -2.5583   -1.2193 H       1  UNL1        0.0636
     39 H           0.7329   -3.8725   -1.6414 H       1  UNL1        0.0619
     40 H           2.8152   -3.2286   -0.6382 H       1  UNL1        0.0654
     41 H           5.0493   -0.9133    1.8338 H       1  UNL1        0.0696
     42 H           4.4863   -2.4924    1.3126 H       1  UNL1        0.0696
     43 H           6.1739   -1.7441   -0.2374 H       1  UNL1        0.0298
     44 H           4.6234   -1.9513   -1.0434 H       1  UNL1        0.0298
     45 H           5.7292   -0.0209   -1.8438 H       1  UNL1        0.0271
     46 H           4.1534    0.4205   -1.0912 H       1  UNL1        0.0271
     47 H           5.9316    2.0357   -0.5333 H       1  UNL1        0.0377
     48 H           5.4320    1.2128    0.9633 H       1  UNL1        0.0377
     49 H           9.3451    1.1693    0.1601 H       1  UNL1        0.2951
@<TRIPOS>BOND
     1     1     2    1
     2     2     3   ar
     3     3     4    1
     4     4     5   am
     5     5     6    2
     6     5     7   am
     7     7     8   am
     8     8     9    2
     9     8    10    1
    10    10    11   ar
    11    11    12   ar
    12    12    13   ar
    13    13    14    1
    14    13    15   ar
    15    15    16   ar
    16    16    17    1
    17     3    18   ar
    18    18    19   ar
    19    19    20   ar
    20    20    21   ar
    21    21    22    1
    22    22    23    1
    23    23    24    1
    24    24    25    1
    25    25    26    1
    26    26    27    1
    27    27    28    1
    28    27    29    2
    29    21     2   ar
    30    16    10   ar
    31     1    30    1
    32     1    31    1
    33     1    32    1
    34     4    33    1
    35     7    34    1
    36    11    35    1
    37    12    36    1
    38    15    37    1
    39    18    38    1
    40    19    39    1
    41    20    40    1
    42    23    41    1
    43    23    42    1
    44    24    43    1
    45    24    44    1
    46    25    45    1
    47    25    46    1
    48    26    47    1
    49    26    48    1
    50    28    49    1
