
     RDKit          3D

 69 73  0  0  0  0  0  0  0  0999 V2000
   -0.1675    1.0013   -5.7048 N   0  0  0  0  0  0  0  0  0  0  0  0
   -0.0312    0.6679   -4.5510 C   0  0  0  0  0  0  0  0  0  0  0  0
    0.1280    0.3075   -3.2943 C   0  0  0  0  0  0  0  0  0  0  0  0
   -0.5954   -1.1892   -3.1831 C   0  0  0  0  0  0  0  0  0  0  0  0
   -1.0716   -2.2196   -3.1071 N   0  0  0  0  0  0  0  0  0  0  0  0
    0.8223    0.3741   -2.2158 C   0  0  0  0  0  0  0  0  0  0  0  0
    2.1032    1.1215   -2.0185 C   0  0  0  0  0  0  0  0  0  0  0  0
    2.7161    1.6408   -3.0191 O   0  0  0  0  0  0  0  0  0  0  0  0
    2.3815    1.0996   -0.6508 N   0  0  0  0  0  0  0  0  0  0  0  0
    3.4995    1.7500    0.0154 C   0  0  0  0  0  0  0  0  0  0  0  0
    4.7619    1.0333   -0.0369 C   0  0  0  0  0  0  0  0  0  0  0  0
    5.7766    1.4589   -0.8685 C   0  0  0  0  0  0  0  0  0  0  0  0
    6.9495    0.7104   -0.8909 C   0  0  0  0  0  0  0  0  0  0  0  0
    7.2096   -0.4072   -0.1756 C   0  0  0  0  0  0  0  0  0  0  0  0
    8.3740   -1.1159   -0.2177 O   0  0  0  0  0  0  0  0  0  0  0  0
    9.5105   -0.8149   -0.9216 C   0  0  0  0  0  0  0  0  0  0  0  0
   10.2495    0.4114   -0.4869 C   0  0  0  0  0  0  0  0  0  0  0  0
   10.6227    0.2345    0.8519 F   0  0  0  0  0  0  0  0  0  0  0  0
    6.1366   -0.8460    0.6957 C   0  0  0  0  0  0  0  0  0  0  0  0
    4.9855   -0.1043    0.7133 C   0  0  0  0  0  0  0  0  0  0  0  0
    1.3547    0.3827    0.0347 C   0  0  0  0  0  0  0  0  0  0  0  0
    1.2137    0.1904    1.4203 C   0  0  0  0  0  0  0  0  0  0  0  0
    0.1063   -0.4496    1.8649 C   0  0  0  0  0  0  0  0  0  0  0  0
   -0.8618   -0.8943    0.9908 C   0  0  0  0  0  0  0  0  0  0  0  0
   -2.3458   -1.6409    1.5810 S   0  0  0  0  0  6  0  0  0  0  0  0
   -1.9275   -2.2597    2.9358 O   0  0  0  0  0  0  0  0  0  0  0  0
   -2.6323   -2.7843    0.6903 O   0  0  0  0  0  0  0  0  0  0  0  0
   -3.6023   -0.6024    1.9095 N   0  0  0  0  0  0  0  0  0  0  0  0
   -3.2299    0.3201    2.9789 C   0  0  0  0  0  0  0  0  0  0  0  0
   -2.8177    1.6018    2.2814 C   0  0  0  0  0  0  0  0  0  0  0  0
   -3.3031    1.4566    0.8648 C   0  0  0  0  0  0  0  0  0  0  0  0
   -4.2153    0.2192    0.9360 C   0  0  1  0  0  0  0  0  0  0  0  0
   -4.5567   -0.2063   -0.3949 C   0  0  0  0  0  0  0  0  0  0  0  0
   -5.4510   -1.3102   -0.6082 O   0  0  0  0  0  0  0  0  0  0  0  0
   -6.7861   -1.1555   -0.1497 C   0  0  0  0  0  0  0  0  0  0  0  0
   -7.2701   -0.0032    0.3545 C   0  0  0  0  0  0  0  0  0  0  0  0
   -8.6142    0.0352    0.7938 C   0  0  0  0  0  0  0  0  0  0  0  0
   -9.3853   -1.1174    0.6936 C   0  0  0  0  0  0  0  0  0  0  0  0
   -8.8982   -2.2613    0.1894 C   0  0  0  0  0  0  0  0  0  0  0  0
   -7.5817   -2.3068   -0.2466 C   0  0  0  0  0  0  0  0  0  0  0  0
   -0.6694   -0.6885   -0.3050 C   0  0  0  0  0  0  0  0  0  0  0  0
    0.4011   -0.0675   -0.8618 C   0  0  0  0  0  0  0  0  0  0  0  0
    3.5945    2.7417   -0.5424 H   0  0  0  0  0  0  0  0  0  0  0  0
    3.2248    2.0757    1.0564 H   0  0  0  0  0  0  0  0  0  0  0  0
    5.6109    2.3268   -1.4477 H   0  0  0  0  0  0  0  0  0  0  0  0
    7.7071    1.1244   -1.5918 H   0  0  0  0  0  0  0  0  0  0  0  0
    9.1889   -0.6123   -1.9974 H   0  0  0  0  0  0  0  0  0  0  0  0
   10.2158   -1.6892   -0.9736 H   0  0  0  0  0  0  0  0  0  0  0  0
   11.1931    0.4818   -1.1157 H   0  0  0  0  0  0  0  0  0  0  0  0
    9.6826    1.3150   -0.6239 H   0  0  0  0  0  0  0  0  0  0  0  0
    6.3406   -1.7355    1.2449 H   0  0  0  0  0  0  0  0  0  0  0  0
    4.1897   -0.4651    1.3638 H   0  0  0  0  0  0  0  0  0  0  0  0
    2.0077    0.5634    2.1012 H   0  0  0  0  0  0  0  0  0  0  0  0
    0.0132   -0.5736    2.9577 H   0  0  0  0  0  0  0  0  0  0  0  0
   -2.5167   -0.0006    3.7082 H   0  0  0  0  0  0  0  0  0  0  0  0
   -4.1656    0.6002    3.5489 H   0  0  0  0  0  0  0  0  0  0  0  0
   -3.3137    2.5054    2.7241 H   0  0  0  0  0  0  0  0  0  0  0  0
   -1.7224    1.7270    2.3138 H   0  0  0  0  0  0  0  0  0  0  0  0
   -2.4892    1.3730    0.1653 H   0  0  0  0  0  0  0  0  0  0  0  0
   -3.9006    2.3335    0.5147 H   0  0  0  0  0  0  0  0  0  0  0  0
   -5.1222    0.6624    1.4813 H   0  0  0  0  0  0  0  0  0  0  0  0
   -5.0915    0.6341   -0.9546 H   0  0  0  0  0  0  0  0  0  0  0  0
   -3.6781   -0.4527   -1.0707 H   0  0  0  0  0  0  0  0  0  0  0  0
   -6.6962    0.9377    0.3922 H   0  0  0  0  0  0  0  0  0  0  0  0
   -8.9323    0.9706    1.1566 H   0  0  0  0  0  0  0  0  0  0  0  0
  -10.4158   -1.0111    1.0756 H   0  0  0  0  0  0  0  0  0  0  0  0
   -9.5061   -3.1762    0.1157 H   0  0  0  0  0  0  0  0  0  0  0  0
   -7.2317   -3.2314   -0.6396 H   0  0  0  0  0  0  0  0  0  0  0  0
   -1.4755   -0.9972   -0.9934 H   0  0  0  0  0  0  0  0  0  0  0  0
  1  2  3  0
  2  3  1  0
  3  4  1  0
  4  5  3  0
  3  6  2  3
  6  7  1  0
  7  8  2  0
  7  9  1  0
  9 10  1  0
 10 11  1  0
 11 12  2  0
 12 13  1  0
 13 14  2  0
 14 15  1  0
 15 16  1  0
 16 17  1  0
 17 18  1  0
 14 19  1  0
 19 20  2  0
  9 21  1  0
 21 22  2  0
 22 23  1  0
 23 24  2  0
 24 25  1  0
 25 26  2  0
 25 27  2  0
 25 28  1  0
 28 29  1  0
 29 30  1  0
 30 31  1  0
 31 32  1  0
 32 33  1  0
 33 34  1  0
 34 35  1  0
 35 36  2  0
 36 37  1  0
 37 38  2  0
 38 39  1  0
 39 40  2  0
 24 41  1  0
 41 42  2  0
 42  6  1  0
 20 11  1  0
 42 21  1  0
 32 28  1  0
 40 35  1  0
 10 43  1  0
 10 44  1  0
 12 45  1  0
 13 46  1  0
 16 47  1  0
 16 48  1  0
 17 49  1  0
 17 50  1  0
 19 51  1  0
 20 52  1  0
 22 53  1  0
 23 54  1  0
 29 55  1  0
 29 56  1  0
 30 57  1  0
 30 58  1  0
 31 59  1  0
 31 60  1  0
 32 61  1  1
 33 62  1  0
 33 63  1  0
 36 64  1  0
 37 65  1  0
 38 66  1  0
 39 67  1  0
 40 68  1  0
 41 69  1  0
M  END
$$$$
