@<TRIPOS>MOLECULE
*****
 69 73 0 0 0
SMALL
GASTEIGER

@<TRIPOS>ATOM
      1 N          -0.1675    1.0013   -5.7048 N.1     1  UNL1       -0.1901
      2 C          -0.0312    0.6679   -4.5510 C.1     1  UNL1        0.1110
      3 C           0.1280    0.3075   -3.2943 C.2     1  UNL1        0.1408
      4 C          -0.5954   -1.1892   -3.1831 C.1     1  UNL1        0.1110
      5 N          -1.0716   -2.2196   -3.1071 N.1     1  UNL1       -0.1901
      6 C           0.8223    0.3741   -2.2158 C.2     1  UNL1        0.0739
      7 C           2.1032    1.1215   -2.0185 C.2     1  UNL1        0.2537
      8 O           2.7161    1.6408   -3.0191 O.2     1  UNL1       -0.2695
      9 N           2.3815    1.0996   -0.6508 N.am    1  UNL1       -0.2625
     10 C           3.4995    1.7500    0.0154 C.3     1  UNL1        0.0451
     11 C           4.7619    1.0333   -0.0369 C.ar    1  UNL1       -0.0295
     12 C           5.7766    1.4589   -0.8685 C.ar    1  UNL1       -0.0536
     13 C           6.9495    0.7104   -0.8909 C.ar    1  UNL1       -0.0196
     14 C           7.2096   -0.4072   -0.1756 C.ar    1  UNL1        0.1206
     15 O           8.3740   -1.1159   -0.2177 O.3     1  UNL1       -0.4894
     16 C           9.5105   -0.8149   -0.9216 C.3     1  UNL1        0.1177
     17 C          10.2495    0.4114   -0.4869 C.3     1  UNL1        0.1241
     18 F          10.6227    0.2345    0.8519 F       1  UNL1       -0.2455
     19 C           6.1366   -0.8460    0.6957 C.ar    1  UNL1       -0.0196
     20 C           4.9855   -0.1043    0.7133 C.ar    1  UNL1       -0.0536
     21 C           1.3547    0.3827    0.0347 C.ar    1  UNL1        0.0450
     22 C           1.2137    0.1904    1.4203 C.ar    1  UNL1       -0.0378
     23 C           0.1063   -0.4496    1.8649 C.ar    1  UNL1       -0.0336
     24 C          -0.8618   -0.8943    0.9908 C.ar    1  UNL1        0.1062
     25 S          -2.3458   -1.6409    1.5810 S.O2    1  UNL1        0.0612
     26 O          -1.9275   -2.2597    2.9358 O.2     1  UNL1       -0.1528
     27 O          -2.6323   -2.7843    0.6903 O.2     1  UNL1       -0.1528
     28 N          -3.6023   -0.6024    1.9095 N.3     1  UNL1       -0.1703
     29 C          -3.2299    0.3201    2.9789 C.3     1  UNL1        0.0210
     30 C          -2.8177    1.6018    2.2814 C.3     1  UNL1       -0.0370
     31 C          -3.3031    1.4566    0.8648 C.3     1  UNL1       -0.0313
     32 C          -4.2153    0.2192    0.9360 C.3     1  UNL1        0.0659
     33 C          -4.5567   -0.2063   -0.3949 C.3     1  UNL1        0.1067
     34 O          -5.4510   -1.3102   -0.6082 O.3     1  UNL1       -0.4904
     35 C          -6.7861   -1.1555   -0.1497 C.ar    1  UNL1        0.1206
     36 C          -7.2701   -0.0032    0.3545 C.ar    1  UNL1       -0.0199
     37 C          -8.6142    0.0352    0.7938 C.ar    1  UNL1       -0.0583
     38 C          -9.3853   -1.1174    0.6936 C.ar    1  UNL1       -0.0615
     39 C          -8.8982   -2.2613    0.1894 C.ar    1  UNL1       -0.0583
     40 C          -7.5817   -2.3068   -0.2466 C.ar    1  UNL1       -0.0199
     41 C          -0.6694   -0.6885   -0.3050 C.ar    1  UNL1       -0.0256
     42 C           0.4011   -0.0675   -0.8618 C.ar    1  UNL1        0.0123
     43 H           3.5945    2.7417   -0.5424 H       1  UNL1        0.0518
     44 H           3.2248    2.0757    1.0564 H       1  UNL1        0.0518
     45 H           5.6109    2.3268   -1.4477 H       1  UNL1        0.0622
     46 H           7.7071    1.1244   -1.5918 H       1  UNL1        0.0654
     47 H           9.1889   -0.6123   -1.9974 H       1  UNL1        0.0723
     48 H          10.2158   -1.6892   -0.9736 H       1  UNL1        0.0723
     49 H          11.1931    0.4818   -1.1157 H       1  UNL1        0.0649
     50 H           9.6826    1.3150   -0.6239 H       1  UNL1        0.0649
     51 H           6.3406   -1.7355    1.2449 H       1  UNL1        0.0654
     52 H           4.1897   -0.4651    1.3638 H       1  UNL1        0.0622
     53 H           2.0077    0.5634    2.1012 H       1  UNL1        0.0637
     54 H           0.0132   -0.5736    2.9577 H       1  UNL1        0.0638
     55 H          -2.5167   -0.0006    3.7082 H       1  UNL1        0.0444
     56 H          -4.1656    0.6002    3.5489 H       1  UNL1        0.0444
     57 H          -3.3137    2.5054    2.7241 H       1  UNL1        0.0279
     58 H          -1.7224    1.7270    2.3138 H       1  UNL1        0.0279
     59 H          -2.4892    1.3730    0.1653 H       1  UNL1        0.0282
     60 H          -3.9006    2.3335    0.5147 H       1  UNL1        0.0282
     61 H          -5.1222    0.6624    1.4813 H       1  UNL1        0.0513
     62 H          -5.0915    0.6341   -0.9546 H       1  UNL1        0.0713
     63 H          -3.6781   -0.4527   -1.0707 H       1  UNL1        0.0713
     64 H          -6.6962    0.9377    0.3922 H       1  UNL1        0.0654
     65 H          -8.9323    0.9706    1.1566 H       1  UNL1        0.0619
     66 H         -10.4158   -1.0111    1.0756 H       1  UNL1        0.0618
     67 H          -9.5061   -3.1762    0.1157 H       1  UNL1        0.0619
     68 H          -7.2317   -3.2314   -0.6396 H       1  UNL1        0.0654
     69 H          -1.4755   -0.9972   -0.9934 H       1  UNL1        0.0644
@<TRIPOS>BOND
     1     1     2    3
     2     2     3    1
     3     3     4    1
     4     4     5    3
     5     3     6    2
     6     6     7    1
     7     7     8    2
     8     7     9   am
     9     9    10    1
    10    10    11    1
    11    11    12   ar
    12    12    13   ar
    13    13    14   ar
    14    14    15    1
    15    15    16    1
    16    16    17    1
    17    17    18    1
    18    14    19   ar
    19    19    20   ar
    20     9    21    1
    21    21    22   ar
    22    22    23   ar
    23    23    24   ar
    24    24    25    1
    25    25    26    2
    26    25    27    2
    27    25    28    1
    28    28    29    1
    29    29    30    1
    30    30    31    1
    31    31    32    1
    32    32    33    1
    33    33    34    1
    34    34    35    1
    35    35    36   ar
    36    36    37   ar
    37    37    38   ar
    38    38    39   ar
    39    39    40   ar
    40    24    41   ar
    41    41    42   ar
    42    42     6    1
    43    20    11   ar
    44    42    21   ar
    45    32    28    1
    46    40    35   ar
    47    10    43    1
    48    10    44    1
    49    12    45    1
    50    13    46    1
    51    16    47    1
    52    16    48    1
    53    17    49    1
    54    17    50    1
    55    19    51    1
    56    20    52    1
    57    22    53    1
    58    23    54    1
    59    29    55    1
    60    29    56    1
    61    30    57    1
    62    30    58    1
    63    31    59    1
    64    31    60    1
    65    32    61    1
    66    33    62    1
    67    33    63    1
    68    36    64    1
    69    37    65    1
    70    38    66    1
    71    39    67    1
    72    40    68    1
    73    41    69    1
