@<TRIPOS>MOLECULE
*****
 58 61 0 0 0
SMALL
GASTEIGER

@<TRIPOS>ATOM
      1 C           2.1069    3.0894   -0.3365 C.3     1  UNL1       -0.0344
      2 C           1.3525    1.8392    0.0879 C.3     1  UNL1        0.0839
      3 O           0.5367    1.3771   -0.9300 O.3     1  UNL1       -0.3418
      4 C          -0.8099    1.4744   -0.7194 C.3     1  UNL1        0.1793
      5 O          -1.3530    2.3260   -1.6449 O.3     1  UNL1       -0.3481
      6 C          -2.1556    1.8056   -2.6064 C.3     1  UNL1        0.0635
      7 C          -3.1438    0.7689   -2.2303 C.3     1  UNL1        0.0236
      8 N          -2.9424    0.3088   -0.8982 N.3     1  UNL1       -0.2818
      9 C          -3.5564    1.1279    0.1119 C.3     1  UNL1        0.0596
     10 C          -3.3572    0.6287    1.4946 C.ar    1  UNL1        0.1454
     11 N          -2.4180    0.8371    2.4396 N.ar    1  UNL1       -0.1553
     12 N          -2.6821    0.1523    3.5350 N.ar    1  UNL1       -0.2267
     13 C          -3.8192   -0.5333    3.3327 C.ar    1  UNL1        0.3416
     14 O          -4.2912   -1.2702    4.2319 O.2     1  UNL1       -0.2452
     15 N          -4.2131   -0.2296    2.0865 N.ar    1  UNL1       -0.2925
     16 C          -1.4978    0.1571   -0.7044 C.3     1  UNL1        0.0875
     17 C          -1.0232   -0.8739   -1.6197 C.ar    1  UNL1       -0.0253
     18 C          -0.0108   -1.0224   -2.5136 C.ar    1  UNL1       -0.0542
     19 C           0.2430   -2.1348   -3.2746 C.ar    1  UNL1       -0.0261
     20 C          -0.5740   -3.2343   -3.1625 C.ar    1  UNL1        0.1234
     21 F          -0.2613   -4.2805   -3.9380 F       1  UNL1       -0.2055
     22 C          -1.6179   -3.1519   -2.2764 C.ar    1  UNL1       -0.0261
     23 C          -1.8492   -2.0070   -1.5173 C.ar    1  UNL1       -0.0542
     24 C           2.2496    0.8299    0.6736 C.ar    1  UNL1       -0.0180
     25 C           1.8616   -0.4456    1.0122 C.ar    1  UNL1       -0.0445
     26 C           2.7304   -1.3663    1.5595 C.ar    1  UNL1        0.0557
     27 C           4.0589   -1.0516    1.8008 C.ar    1  UNL1       -0.0385
     28 C           4.4633    0.2283    1.4649 C.ar    1  UNL1        0.0557
     29 C           3.5918    1.1425    0.9192 C.ar    1  UNL1       -0.0445
     30 C           5.8975    0.5402    1.7349 C.3     1  UNL1        0.4174
     31 F           5.9692    1.8877    2.1105 F       1  UNL1       -0.1659
     32 F           6.6803    0.4208    0.5986 F       1  UNL1       -0.1659
     33 F           6.4177   -0.2752    2.7072 F       1  UNL1       -0.1659
     34 C           2.2223   -2.7372    1.8990 C.3     1  UNL1        0.4174
     35 F           3.1037   -3.3973    2.7276 F       1  UNL1       -0.1659
     36 F           1.0054   -2.6632    2.5102 F       1  UNL1       -0.1659
     37 F           2.1895   -3.4211    0.6848 F       1  UNL1       -0.1659
     38 H           2.4117    3.6103    0.5906 H       1  UNL1        0.0258
     39 H           3.0054    2.8821   -0.9109 H       1  UNL1        0.0258
     40 H           1.3860    3.7210   -0.8834 H       1  UNL1        0.0258
     41 H           0.6795    2.1974    0.8961 H       1  UNL1        0.0644
     42 H          -1.0008    1.9335    0.2954 H       1  UNL1        0.0929
     43 H          -2.6612    2.5899   -3.2220 H       1  UNL1        0.0573
     44 H          -1.4642    1.3146   -3.3579 H       1  UNL1        0.0573
     45 H          -3.1716   -0.0961   -2.9301 H       1  UNL1        0.0449
     46 H          -4.1711    1.2276   -2.2827 H       1  UNL1        0.0449
     47 H          -4.6411    1.1633   -0.1144 H       1  UNL1        0.0507
     48 H          -3.2180    2.1852    0.0580 H       1  UNL1        0.0507
     49 H          -1.9958    0.2651    4.3117 H       1  UNL1        0.1937
     50 H          -5.0980   -0.6674    1.7209 H       1  UNL1        0.1717
     51 H          -1.4306   -0.2949    0.3276 H       1  UNL1        0.0563
     52 H           0.6107   -0.1459   -2.5860 H       1  UNL1        0.0622
     53 H           1.0857   -2.0776   -3.9282 H       1  UNL1        0.0646
     54 H          -2.2291   -4.0490   -2.2297 H       1  UNL1        0.0646
     55 H          -2.7232   -2.1432   -0.8778 H       1  UNL1        0.0622
     56 H           0.8557   -0.7547    0.8539 H       1  UNL1        0.0627
     57 H           4.6649   -1.8157    2.2247 H       1  UNL1        0.0629
     58 H           4.0009    2.1083    0.6932 H       1  UNL1        0.0627
@<TRIPOS>BOND
     1     1     2    1
     2     2     3    1
     3     3     4    1
     4     4     5    1
     5     5     6    1
     6     6     7    1
     7     7     8    1
     8     8     9    1
     9     9    10    1
    10    10    11   ar
    11    11    12   ar
    12    12    13   ar
    13    13    14    2
    14    13    15   ar
    15     8    16    1
    16    16    17    1
    17    17    18   ar
    18    18    19   ar
    19    19    20   ar
    20    20    21    1
    21    20    22   ar
    22    22    23   ar
    23     2    24    1
    24    24    25   ar
    25    25    26   ar
    26    26    27   ar
    27    27    28   ar
    28    28    29   ar
    29    28    30    1
    30    30    31    1
    31    30    32    1
    32    30    33    1
    33    26    34    1
    34    34    35    1
    35    34    36    1
    36    34    37    1
    37    16     4    1
    38    23    17   ar
    39    29    24   ar
    40    15    10   ar
    41     1    38    1
    42     1    39    1
    43     1    40    1
    44     2    41    1
    45     4    42    1
    46     6    43    1
    47     6    44    1
    48     7    45    1
    49     7    46    1
    50     9    47    1
    51     9    48    1
    52    12    49    1
    53    15    50    1
    54    16    51    1
    55    18    52    1
    56    19    53    1
    57    22    54    1
    58    23    55    1
    59    25    56    1
    60    27    57    1
    61    29    58    1
