
     RDKit          3D

 36 38  0  0  0  0  0  0  0  0999 V2000
    5.7759    0.4646    1.1785 N   0  0  0  0  0  0  0  0  0  0  0  0
    4.5016    0.6066    0.5713 C   0  0  0  0  0  0  0  0  0  0  0  0
    4.3801    0.6057   -0.8053 C   0  0  0  0  0  0  0  0  0  0  0  0
    3.1335    0.7448   -1.3894 C   0  0  0  0  0  0  0  0  0  0  0  0
    1.9985    0.8856   -0.6219 C   0  0  0  0  0  0  0  0  0  0  0  0
    0.3983    1.0650   -1.3011 S   0  0  0  0  0  6  0  0  0  0  0  0
    0.4863    1.7619   -2.6289 O   0  0  0  0  0  0  0  0  0  0  0  0
   -0.4303    1.8616   -0.3438 O   0  0  0  0  0  0  0  0  0  0  0  0
   -0.3751   -0.4629   -1.5330 N   0  0  0  0  0  0  0  0  0  0  0  0
   -0.6522   -1.3304   -0.4408 C   0  0  0  0  0  0  0  0  0  0  0  0
    0.1848   -2.3206    0.0626 C   0  0  0  0  0  0  0  0  0  0  0  0
   -0.4643   -2.9236    1.1160 C   0  0  0  0  0  0  0  0  0  0  0  0
   -1.6446   -2.3007    1.2207 N   0  0  0  0  0  0  0  0  0  0  0  0
   -1.7558   -1.3548    0.2961 N   0  0  0  0  0  0  0  0  0  0  0  0
   -2.9222   -0.5412    0.1910 C   0  0  0  0  0  0  0  0  0  0  0  0
   -3.9305   -0.8320   -0.7109 C   0  0  0  0  0  0  0  0  0  0  0  0
   -5.0601   -0.0452   -0.8136 C   0  0  0  0  0  0  0  0  0  0  0  0
   -5.2325    1.0687   -0.0185 C   0  0  0  0  0  0  0  0  0  0  0  0
   -4.2328    1.3671    0.8841 C   0  0  0  0  0  0  0  0  0  0  0  0
   -3.1048    0.5759    0.9821 C   0  0  0  0  0  0  0  0  0  0  0  0
    2.1317    0.8850    0.7433 C   0  0  0  0  0  0  0  0  0  0  0  0
    3.3705    0.7471    1.3511 C   0  0  0  0  0  0  0  0  0  0  0  0
    6.5986    0.0469    0.7052 H   0  0  0  0  0  0  0  0  0  0  0  0
    5.9248    0.7969    2.1756 H   0  0  0  0  0  0  0  0  0  0  0  0
    5.2258    0.4998   -1.4723 H   0  0  0  0  0  0  0  0  0  0  0  0
    3.0466    0.7431   -2.4692 H   0  0  0  0  0  0  0  0  0  0  0  0
   -0.6670   -0.8038   -2.4853 H   0  0  0  0  0  0  0  0  0  0  0  0
    1.1582   -2.5789   -0.2927 H   0  0  0  0  0  0  0  0  0  0  0  0
   -0.1523   -3.7311    1.7653 H   0  0  0  0  0  0  0  0  0  0  0  0
   -3.8127   -1.7157   -1.3544 H   0  0  0  0  0  0  0  0  0  0  0  0
   -5.8629   -0.2641   -1.5215 H   0  0  0  0  0  0  0  0  0  0  0  0
   -6.1192    1.6985   -0.0892 H   0  0  0  0  0  0  0  0  0  0  0  0
   -4.3441    2.2379    1.5211 H   0  0  0  0  0  0  0  0  0  0  0  0
   -2.3079    0.8042    1.6937 H   0  0  0  0  0  0  0  0  0  0  0  0
    1.2713    0.9926    1.4022 H   0  0  0  0  0  0  0  0  0  0  0  0
    3.4848    0.7456    2.4322 H   0  0  0  0  0  0  0  0  0  0  0  0
  1  2  1  0
  2  3  2  0
  3  4  1  0
  4  5  2  0
  5  6  1  0
  6  7  2  0
  6  8  2  0
  6  9  1  0
  9 10  1  0
 10 11  2  0
 11 12  1  0
 12 13  2  0
 13 14  1  0
 14 15  1  0
 15 16  2  0
 16 17  1  0
 17 18  2  0
 18 19  1  0
 19 20  2  0
  5 21  1  0
 21 22  2  0
 22  2  1  0
 14 10  1  0
 20 15  1  0
  1 23  1  0
  1 24  1  0
  3 25  1  0
  4 26  1  0
  9 27  1  0
 11 28  1  0
 12 29  1  0
 16 30  1  0
 17 31  1  0
 18 32  1  0
 19 33  1  0
 20 34  1  0
 21 35  1  0
 22 36  1  0
M  END
$$$$
