@<TRIPOS>MOLECULE
*****
 36 38 0 0 0
SMALL
GASTEIGER

@<TRIPOS>ATOM
      1 N           5.7759    0.4646    1.1785 N.pl3   1  UNL1       -0.3580
      2 C           4.5016    0.6066    0.5713 C.ar    1  UNL1        0.0247
      3 C           4.3801    0.6057   -0.8053 C.ar    1  UNL1       -0.0392
      4 C           3.1335    0.7448   -1.3894 C.ar    1  UNL1       -0.0333
      5 C           1.9985    0.8856   -0.6219 C.ar    1  UNL1        0.1087
      6 S           0.3983    1.0650   -1.3011 S.O2    1  UNL1        0.0735
      7 O           0.4863    1.7619   -2.6289 O.2     1  UNL1       -0.1499
      8 O          -0.4303    1.8616   -0.3438 O.2     1  UNL1       -0.1499
      9 N          -0.3751   -0.4629   -1.5330 N.pl3   1  UNL1       -0.1994
     10 C          -0.6522   -1.3304   -0.4408 C.ar    1  UNL1        0.1413
     11 C           0.1848   -2.3206    0.0626 C.ar    1  UNL1       -0.0006
     12 C          -0.4643   -2.9236    1.1160 C.ar    1  UNL1        0.0517
     13 N          -1.6446   -2.3007    1.2207 N.ar    1  UNL1       -0.1730
     14 N          -1.7558   -1.3548    0.2961 N.ar    1  UNL1       -0.2173
     15 C          -2.9222   -0.5412    0.1910 C.ar    1  UNL1        0.0675
     16 C          -3.9305   -0.8320   -0.7109 C.ar    1  UNL1       -0.0362
     17 C          -5.0601   -0.0452   -0.8136 C.ar    1  UNL1       -0.0598
     18 C          -5.2325    1.0687   -0.0185 C.ar    1  UNL1       -0.0616
     19 C          -4.2328    1.3671    0.8841 C.ar    1  UNL1       -0.0598
     20 C          -3.1048    0.5759    0.9821 C.ar    1  UNL1       -0.0362
     21 C           2.1317    0.8850    0.7433 C.ar    1  UNL1       -0.0333
     22 C           3.3705    0.7471    1.3511 C.ar    1  UNL1       -0.0392
     23 H           6.5986    0.0469    0.7052 H       1  UNL1        0.1423
     24 H           5.9248    0.7969    2.1756 H       1  UNL1        0.1423
     25 H           5.2258    0.4998   -1.4723 H       1  UNL1        0.0636
     26 H           3.0466    0.7431   -2.4692 H       1  UNL1        0.0638
     27 H          -0.6670   -0.8038   -2.4853 H       1  UNL1        0.1752
     28 H           1.1582   -2.5789   -0.2927 H       1  UNL1        0.0668
     29 H          -0.1523   -3.7311    1.7653 H       1  UNL1        0.0848
     30 H          -3.8127   -1.7157   -1.3544 H       1  UNL1        0.0639
     31 H          -5.8629   -0.2641   -1.5215 H       1  UNL1        0.0618
     32 H          -6.1192    1.6985   -0.0892 H       1  UNL1        0.0618
     33 H          -4.3441    2.2379    1.5211 H       1  UNL1        0.0618
     34 H          -2.3079    0.8042    1.6937 H       1  UNL1        0.0639
     35 H           1.2713    0.9926    1.4022 H       1  UNL1        0.0638
     36 H           3.4848    0.7456    2.4322 H       1  UNL1        0.0636
@<TRIPOS>BOND
     1     1     2    1
     2     2     3   ar
     3     3     4   ar
     4     4     5   ar
     5     5     6    1
     6     6     7    2
     7     6     8    2
     8     6     9    1
     9     9    10    1
    10    10    11   ar
    11    11    12   ar
    12    12    13   ar
    13    13    14   ar
    14    14    15    1
    15    15    16   ar
    16    16    17   ar
    17    17    18   ar
    18    18    19   ar
    19    19    20   ar
    20     5    21   ar
    21    21    22   ar
    22    22     2   ar
    23    14    10   ar
    24    20    15   ar
    25     1    23    1
    26     1    24    1
    27     3    25    1
    28     4    26    1
    29     9    27    1
    30    11    28    1
    31    12    29    1
    32    16    30    1
    33    17    31    1
    34    18    32    1
    35    19    33    1
    36    20    34    1
    37    21    35    1
    38    22    36    1
