@<TRIPOS>MOLECULE
*****
 41 43 0 0 0
SMALL
GASTEIGER

@<TRIPOS>ATOM
      1 C          -6.1317    2.0168   -1.5646 C.3     1  UNL1        0.0004
      2 N          -5.4085    1.1614   -0.6169 N.am    1  UNL1       -0.3144
      3 C          -4.1368    0.6482   -0.9160 C.2     1  UNL1        0.2439
      4 O          -3.6371    0.9532   -2.0383 O.2     1  UNL1       -0.2702
      5 C          -3.3478   -0.2005   -0.0496 C.ar    1  UNL1        0.0385
      6 C          -3.8476   -0.5587    1.1784 C.ar    1  UNL1       -0.0495
      7 C          -3.1471   -1.3604    2.0429 C.ar    1  UNL1       -0.0592
      8 C          -1.8839   -1.8170    1.6405 C.ar    1  UNL1       -0.0353
      9 C          -1.3648   -1.4721    0.4190 C.ar    1  UNL1        0.1062
     10 S           0.1953   -2.0341   -0.0819 S.O2    1  UNL1        0.0612
     11 O           0.4394   -3.3894    0.5101 O.2     1  UNL1       -0.1528
     12 O           0.2351   -2.2126   -1.5837 O.2     1  UNL1       -0.1528
     13 N           1.3697   -0.8891    0.4276 N.3     1  UNL1       -0.1720
     14 C           1.1981    0.4009   -0.1424 C.3     1  UNL1        0.0248
     15 C           2.1038    1.3452    0.6650 C.3     1  UNL1       -0.0129
     16 C           3.4801    0.9300    0.3247 C.ar    1  UNL1       -0.0416
     17 C           4.4598    1.8564    0.0864 C.ar    1  UNL1       -0.0582
     18 C           5.7487    1.4202   -0.2366 C.ar    1  UNL1       -0.0615
     19 C           6.0437    0.0745   -0.3177 C.ar    1  UNL1       -0.0614
     20 C           5.0538   -0.8524   -0.0768 C.ar    1  UNL1       -0.0570
     21 C           3.7644   -0.4127    0.2464 C.ar    1  UNL1       -0.0285
     22 C           2.6874   -1.3979    0.5119 C.3     1  UNL1        0.0458
     23 C          -2.1016   -0.6693   -0.4103 C.ar    1  UNL1       -0.0232
     24 H          -5.8862    3.0833   -1.3920 H       1  UNL1        0.0426
     25 H          -5.7588    1.7898   -2.5970 H       1  UNL1        0.0426
     26 H          -7.2166    1.8057   -1.5327 H       1  UNL1        0.0426
     27 H          -5.8563    0.9437    0.2788 H       1  UNL1        0.1487
     28 H          -4.8285   -0.2342    1.5503 H       1  UNL1        0.0625
     29 H          -3.5456   -1.6344    2.9989 H       1  UNL1        0.0618
     30 H          -1.3258   -2.4466    2.3113 H       1  UNL1        0.0637
     31 H           0.1489    0.6945   -0.0627 H       1  UNL1        0.0447
     32 H           1.5981    0.4603   -1.1911 H       1  UNL1        0.0447
     33 H           1.8846    1.1153    1.7319 H       1  UNL1        0.0326
     34 H           1.8979    2.4040    0.4167 H       1  UNL1        0.0326
     35 H           4.2530    2.9108    0.1440 H       1  UNL1        0.0620
     36 H           6.5269    2.1368   -0.4259 H       1  UNL1        0.0618
     37 H           7.0719   -0.2243   -0.5751 H       1  UNL1        0.0618
     38 H           5.2883   -1.9047   -0.1412 H       1  UNL1        0.0621
     39 H           2.8442   -1.7245    1.5839 H       1  UNL1        0.0493
     40 H           2.8443   -2.3295   -0.0724 H       1  UNL1        0.0493
     41 H          -1.7126   -0.3866   -1.3737 H       1  UNL1        0.0644
@<TRIPOS>BOND
     1     1     2    1
     2     2     3   am
     3     3     4    2
     4     3     5    1
     5     5     6   ar
     6     6     7   ar
     7     7     8   ar
     8     8     9   ar
     9     9    10    1
    10    10    11    2
    11    10    12    2
    12    10    13    1
    13    13    14    1
    14    14    15    1
    15    15    16    1
    16    16    17   ar
    17    17    18   ar
    18    18    19   ar
    19    19    20   ar
    20    20    21   ar
    21    21    22    1
    22     9    23   ar
    23    23     5   ar
    24    22    13    1
    25    21    16   ar
    26     1    24    1
    27     1    25    1
    28     1    26    1
    29     2    27    1
    30     6    28    1
    31     7    29    1
    32     8    30    1
    33    14    31    1
    34    14    32    1
    35    15    33    1
    36    15    34    1
    37    17    35    1
    38    18    36    1
    39    19    37    1
    40    20    38    1
    41    22    39    1
    42    22    40    1
    43    23    41    1
