
     RDKit          3D

 41 43  0  0  0  0  0  0  0  0999 V2000
   -6.1317    2.0168   -1.5646 C   0  0  0  0  0  0  0  0  0  0  0  0
   -5.4085    1.1614   -0.6169 N   0  0  0  0  0  0  0  0  0  0  0  0
   -4.1368    0.6482   -0.9160 C   0  0  0  0  0  0  0  0  0  0  0  0
   -3.6371    0.9532   -2.0383 O   0  0  0  0  0  0  0  0  0  0  0  0
   -3.3478   -0.2005   -0.0496 C   0  0  0  0  0  0  0  0  0  0  0  0
   -3.8476   -0.5587    1.1784 C   0  0  0  0  0  0  0  0  0  0  0  0
   -3.1471   -1.3604    2.0429 C   0  0  0  0  0  0  0  0  0  0  0  0
   -1.8839   -1.8170    1.6405 C   0  0  0  0  0  0  0  0  0  0  0  0
   -1.3648   -1.4721    0.4190 C   0  0  0  0  0  0  0  0  0  0  0  0
    0.1953   -2.0341   -0.0819 S   0  0  0  0  0  6  0  0  0  0  0  0
    0.4394   -3.3894    0.5101 O   0  0  0  0  0  0  0  0  0  0  0  0
    0.2351   -2.2126   -1.5837 O   0  0  0  0  0  0  0  0  0  0  0  0
    1.3697   -0.8891    0.4276 N   0  0  0  0  0  0  0  0  0  0  0  0
    1.1981    0.4009   -0.1424 C   0  0  0  0  0  0  0  0  0  0  0  0
    2.1038    1.3452    0.6650 C   0  0  0  0  0  0  0  0  0  0  0  0
    3.4801    0.9300    0.3247 C   0  0  0  0  0  0  0  0  0  0  0  0
    4.4598    1.8564    0.0864 C   0  0  0  0  0  0  0  0  0  0  0  0
    5.7487    1.4202   -0.2366 C   0  0  0  0  0  0  0  0  0  0  0  0
    6.0437    0.0745   -0.3177 C   0  0  0  0  0  0  0  0  0  0  0  0
    5.0538   -0.8524   -0.0768 C   0  0  0  0  0  0  0  0  0  0  0  0
    3.7644   -0.4127    0.2464 C   0  0  0  0  0  0  0  0  0  0  0  0
    2.6874   -1.3979    0.5119 C   0  0  0  0  0  0  0  0  0  0  0  0
   -2.1016   -0.6693   -0.4103 C   0  0  0  0  0  0  0  0  0  0  0  0
   -5.8862    3.0833   -1.3920 H   0  0  0  0  0  0  0  0  0  0  0  0
   -5.7588    1.7898   -2.5970 H   0  0  0  0  0  0  0  0  0  0  0  0
   -7.2166    1.8057   -1.5327 H   0  0  0  0  0  0  0  0  0  0  0  0
   -5.8563    0.9437    0.2788 H   0  0  0  0  0  0  0  0  0  0  0  0
   -4.8285   -0.2342    1.5503 H   0  0  0  0  0  0  0  0  0  0  0  0
   -3.5456   -1.6344    2.9989 H   0  0  0  0  0  0  0  0  0  0  0  0
   -1.3258   -2.4466    2.3113 H   0  0  0  0  0  0  0  0  0  0  0  0
    0.1489    0.6945   -0.0627 H   0  0  0  0  0  0  0  0  0  0  0  0
    1.5981    0.4603   -1.1911 H   0  0  0  0  0  0  0  0  0  0  0  0
    1.8846    1.1153    1.7319 H   0  0  0  0  0  0  0  0  0  0  0  0
    1.8979    2.4040    0.4167 H   0  0  0  0  0  0  0  0  0  0  0  0
    4.2530    2.9108    0.1440 H   0  0  0  0  0  0  0  0  0  0  0  0
    6.5269    2.1368   -0.4259 H   0  0  0  0  0  0  0  0  0  0  0  0
    7.0719   -0.2243   -0.5751 H   0  0  0  0  0  0  0  0  0  0  0  0
    5.2883   -1.9047   -0.1412 H   0  0  0  0  0  0  0  0  0  0  0  0
    2.8442   -1.7245    1.5839 H   0  0  0  0  0  0  0  0  0  0  0  0
    2.8443   -2.3295   -0.0724 H   0  0  0  0  0  0  0  0  0  0  0  0
   -1.7126   -0.3866   -1.3737 H   0  0  0  0  0  0  0  0  0  0  0  0
  1  2  1  0
  2  3  1  0
  3  4  2  0
  3  5  1  0
  5  6  2  0
  6  7  1  0
  7  8  2  0
  8  9  1  0
  9 10  1  0
 10 11  2  0
 10 12  2  0
 10 13  1  0
 13 14  1  0
 14 15  1  0
 15 16  1  0
 16 17  2  0
 17 18  1  0
 18 19  2  0
 19 20  1  0
 20 21  2  0
 21 22  1  0
  9 23  2  0
 23  5  1  0
 22 13  1  0
 21 16  1  0
  1 24  1  0
  1 25  1  0
  1 26  1  0
  2 27  1  0
  6 28  1  0
  7 29  1  0
  8 30  1  0
 14 31  1  0
 14 32  1  0
 15 33  1  0
 15 34  1  0
 17 35  1  0
 18 36  1  0
 19 37  1  0
 20 38  1  0
 22 39  1  0
 22 40  1  0
 23 41  1  0
M  END
$$$$
