@<TRIPOS>MOLECULE
*****
 55 57 0 0 0
SMALL
GASTEIGER

@<TRIPOS>ATOM
      1 O          -0.0941    1.7099    1.5881 O.2     1  UNL1       -0.2492
      2 C           0.4962    1.0748    0.6740 C.2     1  UNL1        0.3236
      3 O           0.8521    1.7528   -0.4661 O.3     1  UNL1       -0.4795
      4 C           0.7742   -0.3458    0.8615 C.3     1  UNL1        0.1268
      5 C           2.1535   -0.8349    0.5784 C.3     1  UNL1       -0.0062
      6 C           3.2868   -0.3042    1.3282 C.3     1  UNL1        0.0681
      7 S           3.7542    1.3529    1.2208 S.O2    1  UNL1       -0.0269
      8 O           2.8288    2.3412    1.8553 O.2     1  UNL1       -0.1740
      9 O           5.0404    1.4896    2.0651 O.2     1  UNL1       -0.1740
     10 C           4.2368    1.8921   -0.3979 C.3     1  UNL1        0.0907
     11 C           5.4166    1.0952   -0.8706 C.ar    1  UNL1       -0.0265
     12 C           6.6662    1.5732   -0.5515 C.ar    1  UNL1       -0.0570
     13 C           7.7882    0.8822   -0.9606 C.ar    1  UNL1       -0.0615
     14 C           7.6676   -0.2757   -1.6816 C.ar    1  UNL1       -0.0617
     15 C           6.4153   -0.7349   -1.9890 C.ar    1  UNL1       -0.0615
     16 C           5.2737   -0.0644   -1.5931 C.ar    1  UNL1       -0.0570
     17 N           0.3179   -0.7975    2.1921 N.3     1  UNL1       -0.1761
     18 S          -0.9066   -1.9619    2.0622 S.O2    1  UNL1        0.0591
     19 O          -1.2484   -2.5100    3.4204 O.2     1  UNL1       -0.1530
     20 O          -0.3733   -3.1502    1.2736 O.2     1  UNL1       -0.1530
     21 C          -2.3534   -1.4402    1.2789 C.ar    1  UNL1        0.1053
     22 C          -3.3676   -0.8062    1.9667 C.ar    1  UNL1       -0.0348
     23 C          -4.5318   -0.3903    1.3557 C.ar    1  UNL1       -0.0522
     24 C          -4.7201   -0.6025    0.0024 C.ar    1  UNL1       -0.0178
     25 C          -5.9066   -0.1975   -0.7079 C.ar    1  UNL1       -0.0178
     26 C          -6.3556   -0.9161   -1.7877 C.ar    1  UNL1       -0.0530
     27 C          -7.4933   -0.5532   -2.4933 C.ar    1  UNL1       -0.0472
     28 C          -8.1910    0.5495   -2.1075 C.ar    1  UNL1        0.0179
     29 BR         -9.7740    1.1418   -3.0083 Br      1  UNL1       -0.0503
     30 C          -7.7711    1.3004   -1.0242 C.ar    1  UNL1       -0.0472
     31 C          -6.6159    0.9136   -0.3248 C.ar    1  UNL1       -0.0530
     32 C          -3.6876   -1.2408   -0.6657 C.ar    1  UNL1       -0.0522
     33 C          -2.5323   -1.6533   -0.0584 C.ar    1  UNL1       -0.0348
     34 H           0.5878    2.6857   -0.6958 H       1  UNL1        0.2951
     35 H           0.1177   -0.9603    0.1470 H       1  UNL1        0.0593
     36 H           2.3293   -0.8670   -0.5434 H       1  UNL1        0.0302
     37 H           2.1129   -1.9543    0.8103 H       1  UNL1        0.0302
     38 H           4.1860   -0.9583    1.0664 H       1  UNL1        0.0500
     39 H           3.1370   -0.5509    2.4148 H       1  UNL1        0.0500
     40 H           4.5828    2.9426   -0.3208 H       1  UNL1        0.0549
     41 H           3.4394    1.8949   -1.1415 H       1  UNL1        0.0549
     42 H           6.8106    2.4807    0.0146 H       1  UNL1        0.0621
     43 H           8.7880    1.2334   -0.7247 H       1  UNL1        0.0618
     44 H           8.5345   -0.8353   -2.0137 H       1  UNL1        0.0618
     45 H           6.2793   -1.6389   -2.5526 H       1  UNL1        0.0618
     46 H           4.2941   -0.4241   -1.8350 H       1  UNL1        0.0621
     47 H           0.1232   -0.0184    2.8251 H       1  UNL1        0.1489
     48 H          -3.2416   -0.6263    3.0425 H       1  UNL1        0.0637
     49 H          -5.3302    0.1138    1.9191 H       1  UNL1        0.0624
     50 H          -5.7873   -1.7997   -2.0867 H       1  UNL1        0.0624
     51 H          -7.8178   -1.1359   -3.3326 H       1  UNL1        0.0629
     52 H          -8.2833    2.1750   -0.6805 H       1  UNL1        0.0629
     53 H          -6.3037    1.5134    0.5193 H       1  UNL1        0.0624
     54 H          -3.8224   -1.4160   -1.7446 H       1  UNL1        0.0624
     55 H          -1.7824   -2.1436   -0.6456 H       1  UNL1        0.0637
@<TRIPOS>BOND
     1     1     2    2
     2     2     3    1
     3     2     4    1
     4     4     5    1
     5     5     6    1
     6     6     7    1
     7     7     8    2
     8     7     9    2
     9     7    10    1
    10    10    11    1
    11    11    12   ar
    12    12    13   ar
    13    13    14   ar
    14    14    15   ar
    15    15    16   ar
    16     4    17    1
    17    17    18    1
    18    18    19    2
    19    18    20    2
    20    18    21    1
    21    21    22   ar
    22    22    23   ar
    23    23    24   ar
    24    24    25    1
    25    25    26   ar
    26    26    27   ar
    27    27    28   ar
    28    28    29    1
    29    28    30   ar
    30    30    31   ar
    31    24    32   ar
    32    32    33   ar
    33    16    11   ar
    34    33    21   ar
    35    31    25   ar
    36     3    34    1
    37     4    35    1
    38     5    36    1
    39     5    37    1
    40     6    38    1
    41     6    39    1
    42    10    40    1
    43    10    41    1
    44    12    42    1
    45    13    43    1
    46    14    44    1
    47    15    45    1
    48    16    46    1
    49    17    47    1
    50    22    48    1
    51    23    49    1
    52    26    50    1
    53    27    51    1
    54    30    52    1
    55    31    53    1
    56    32    54    1
    57    33    55    1
