@<TRIPOS>MOLECULE
*****
 55 57 0 0 0
SMALL
GASTEIGER

@<TRIPOS>ATOM
      1 C          -3.6460   -1.3879    2.5802 C.3     1  UNL1       -0.0558
      2 C          -3.8683   -0.9865    1.1415 C.3     1  UNL1       -0.0096
      3 C          -4.8534   -1.9707    0.5175 C.3     1  UNL1       -0.0558
      4 C          -4.4180    0.4033    1.1322 C.3     1  UNL1       -0.0431
      5 C          -4.2226    1.1428   -0.1610 C.3     1  UNL1       -0.0431
      6 C          -2.7806    1.2298   -0.5726 C.3     1  UNL1       -0.0095
      7 C          -2.0089    2.2490    0.2325 C.3     1  UNL1       -0.0558
      8 C          -2.7584    1.7177   -2.0190 C.3     1  UNL1       -0.0558
      9 C          -2.0776   -0.0689   -0.4608 C.ar    1  UNL1       -0.0377
     10 C          -2.6267   -1.0488    0.3425 C.ar    1  UNL1       -0.0380
     11 C          -1.9700   -2.2526    0.4428 C.ar    1  UNL1       -0.0574
     12 C          -0.7857   -2.4686   -0.2494 C.ar    1  UNL1       -0.0554
     13 C          -0.2069   -1.4975   -1.0685 C.ar    1  UNL1       -0.0100
     14 C          -0.9007   -0.2915   -1.1451 C.ar    1  UNL1       -0.0517
     15 C           1.0497   -1.7650   -1.7859 C.3     1  UNL1        0.1561
     16 O           1.0308   -1.3504   -3.1163 O.3     1  UNL1       -0.3779
     17 C           2.2170   -1.1417   -1.1274 C.2     1  UNL1        0.2504
     18 O           2.2270   -1.5163    0.0587 O.2     1  UNL1       -0.2722
     19 N           3.1952   -0.2677   -1.6682 N.am    1  UNL1       -0.2808
     20 C           4.2239    0.1899   -0.8031 C.ar    1  UNL1        0.0691
     21 C           4.1339    1.3389   -0.0456 C.ar    1  UNL1        0.1453
     22 F           2.9946    2.0740   -0.1336 F       1  UNL1       -0.2035
     23 C           5.0991    1.8151    0.7990 C.ar    1  UNL1       -0.0106
     24 C           6.2630    1.0769    0.8979 C.ar    1  UNL1        0.0617
     25 C           6.4513   -0.0870    0.1820 C.ar    1  UNL1       -0.0458
     26 C           5.4150   -0.5040   -0.6588 C.ar    1  UNL1       -0.0369
     27 C           7.4005    1.4230    1.7425 C.2     1  UNL1        0.3369
     28 O           7.5847    2.5024    2.5964 O.3     1  UNL1       -0.4771
     29 O           8.4921    0.7689    1.8620 O.2     1  UNL1       -0.2451
     30 H          -2.6777   -1.0392    2.9938 H       1  UNL1        0.0238
     31 H          -4.4405   -0.9407    3.2244 H       1  UNL1        0.0238
     32 H          -3.7757   -2.4916    2.6836 H       1  UNL1        0.0238
     33 H          -5.4056   -1.4797   -0.3115 H       1  UNL1        0.0238
     34 H          -4.3298   -2.8332    0.0523 H       1  UNL1        0.0238
     35 H          -5.5943   -2.3171    1.2782 H       1  UNL1        0.0238
     36 H          -5.5301    0.2994    1.2717 H       1  UNL1        0.0274
     37 H          -3.9773    0.9764    1.9533 H       1  UNL1        0.0274
     38 H          -4.5882    2.1812    0.0140 H       1  UNL1        0.0274
     39 H          -4.8311    0.7234   -0.9801 H       1  UNL1        0.0274
     40 H          -2.3258    3.2854   -0.0119 H       1  UNL1        0.0238
     41 H          -2.0381    2.0414    1.3225 H       1  UNL1        0.0238
     42 H          -0.9420    2.1685   -0.0743 H       1  UNL1        0.0238
     43 H          -3.6108    2.4507   -2.1052 H       1  UNL1        0.0238
     44 H          -1.8389    2.2572   -2.2740 H       1  UNL1        0.0238
     45 H          -2.9217    0.8952   -2.7240 H       1  UNL1        0.0238
     46 H          -2.2897   -3.1048    1.0363 H       1  UNL1        0.0621
     47 H          -0.2463   -3.4205   -0.1835 H       1  UNL1        0.0621
     48 H          -0.4953    0.4961   -1.7668 H       1  UNL1        0.0624
     49 H           1.1972   -2.8702   -1.8121 H       1  UNL1        0.0741
     50 H           0.8403   -0.3732   -3.1795 H       1  UNL1        0.2109
     51 H           3.0334   -0.0576   -2.6807 H       1  UNL1        0.1550
     52 H           5.0281    2.7050    1.3850 H       1  UNL1        0.0655
     53 H           7.3379   -0.7051    0.2182 H       1  UNL1        0.0626
     54 H           5.4984   -1.4233   -1.2588 H       1  UNL1        0.0637
     55 H           8.2696    3.2499    2.4163 H       1  UNL1        0.2954
@<TRIPOS>BOND
     1     1     2    1
     2     2     3    1
     3     2     4    1
     4     4     5    1
     5     5     6    1
     6     6     7    1
     7     6     8    1
     8     6     9    1
     9     9    10   ar
    10    10    11   ar
    11    11    12   ar
    12    12    13   ar
    13    13    14   ar
    14    13    15    1
    15    15    16    1
    16    15    17    1
    17    17    18    2
    18    17    19   am
    19    19    20    1
    20    20    21   ar
    21    21    22    1
    22    21    23   ar
    23    23    24   ar
    24    24    25   ar
    25    25    26   ar
    26    24    27    1
    27    27    28    1
    28    27    29    2
    29    10     2    1
    30    26    20   ar
    31    14     9   ar
    32     1    30    1
    33     1    31    1
    34     1    32    1
    35     3    33    1
    36     3    34    1
    37     3    35    1
    38     4    36    1
    39     4    37    1
    40     5    38    1
    41     5    39    1
    42     7    40    1
    43     7    41    1
    44     7    42    1
    45     8    43    1
    46     8    44    1
    47     8    45    1
    48    11    46    1
    49    12    47    1
    50    14    48    1
    51    15    49    1
    52    16    50    1
    53    19    51    1
    54    23    52    1
    55    25    53    1
    56    26    54    1
    57    28    55    1
