
     RDKit          3D

 49 52  0  0  0  0  0  0  0  0999 V2000
    1.1658    0.9122    1.2016 O   0  0  0  0  0  0  0  0  0  0  0  0
    1.0237   -0.2127    0.6647 C   0  0  0  0  0  0  0  0  0  0  0  0
    2.1646   -1.1017    0.4441 C   0  0  0  0  0  0  0  0  0  0  0  0
    3.3855   -0.5119    0.9056 N   0  0  0  0  0  0  0  0  0  0  0  0
    4.4567   -1.4628    0.6935 C   0  0  0  0  0  0  0  0  0  0  0  0
    5.6259   -0.6319    0.1631 C   0  0  0  0  0  0  0  0  0  0  0  0
    4.8639    0.3884   -0.6544 C   0  0  2  0  0  0  0  0  0  0  0  0
    5.7175    1.6095   -0.9178 C   0  0  0  0  0  0  0  0  0  0  0  0
    4.9718    2.4921   -1.6602 F   0  0  0  0  0  0  0  0  0  0  0  0
    6.8099    1.1962   -1.6596 F   0  0  0  0  0  0  0  0  0  0  0  0
    6.1616    2.1602    0.2678 F   0  0  0  0  0  0  0  0  0  0  0  0
    3.6750    0.6884    0.1993 C   0  0  0  0  0  0  0  0  0  0  0  0
   -0.3064   -0.5711    0.2850 N   0  0  0  0  0  0  0  0  0  0  0  0
   -1.4582    0.2518    0.4736 C   0  0  1  0  0  0  0  0  0  0  0  0
   -2.0749    0.5455   -0.8796 C   0  0  0  0  0  0  0  0  0  0  0  0
   -2.6325   -0.7037   -1.5251 C   0  0  0  0  0  0  0  0  0  0  0  0
   -3.7269   -1.2549   -0.6609 C   0  0  0  0  0  0  0  0  0  0  0  0
   -3.1235   -1.6145    0.6850 C   0  0  0  0  0  0  0  0  0  0  0  0
   -2.5342   -0.3894    1.3186 C   0  0  0  0  0  0  0  0  0  0  0  0
   -3.6469    0.6382    1.4650 C   0  0  0  0  0  0  0  0  0  0  0  0
   -4.2373    1.0120    0.1305 C   0  0  2  0  0  0  0  0  0  0  0  0
   -5.2237    1.9649    0.3642 O   0  0  0  0  0  0  0  0  0  0  0  0
   -4.8170   -0.2191   -0.4868 C   0  0  0  0  0  0  0  0  0  0  0  0
   -3.1536    1.5948   -0.7380 C   0  0  0  0  0  0  0  0  0  0  0  0
    2.0484   -2.1104    0.9048 H   0  0  0  0  0  0  0  0  0  0  0  0
    2.2685   -1.2808   -0.6585 H   0  0  0  0  0  0  0  0  0  0  0  0
    4.7278   -2.0219    1.5987 H   0  0  0  0  0  0  0  0  0  0  0  0
    4.2256   -2.2047   -0.0982 H   0  0  0  0  0  0  0  0  0  0  0  0
    6.1028   -0.1177    1.0238 H   0  0  0  0  0  0  0  0  0  0  0  0
    6.3252   -1.2347   -0.4340 H   0  0  0  0  0  0  0  0  0  0  0  0
    4.6138   -0.0611   -1.6394 H   0  0  0  0  0  0  0  0  0  0  0  0
    3.9927    1.4531    0.9550 H   0  0  0  0  0  0  0  0  0  0  0  0
    2.8160    1.0849   -0.4098 H   0  0  0  0  0  0  0  0  0  0  0  0
   -0.4082   -1.5089   -0.1595 H   0  0  0  0  0  0  0  0  0  0  0  0
   -1.2239    1.2249    0.9508 H   0  0  0  0  0  0  0  0  0  0  0  0
   -1.2926    0.9451   -1.5489 H   0  0  0  0  0  0  0  0  0  0  0  0
   -1.8418   -1.4479   -1.6443 H   0  0  0  0  0  0  0  0  0  0  0  0
   -2.9857   -0.4099   -2.5335 H   0  0  0  0  0  0  0  0  0  0  0  0
   -4.1904   -2.1591   -1.0640 H   0  0  0  0  0  0  0  0  0  0  0  0
   -2.3910   -2.4245    0.5431 H   0  0  0  0  0  0  0  0  0  0  0  0
   -3.9549   -1.9542    1.3361 H   0  0  0  0  0  0  0  0  0  0  0  0
   -2.1999   -0.6204    2.3439 H   0  0  0  0  0  0  0  0  0  0  0  0
   -3.2745    1.5169    2.0378 H   0  0  0  0  0  0  0  0  0  0  0  0
   -4.4485    0.1522    2.0598 H   0  0  0  0  0  0  0  0  0  0  0  0
   -4.8953    2.7464    0.8472 H   0  0  0  0  0  0  0  0  0  0  0  0
   -5.6092   -0.6046    0.1896 H   0  0  0  0  0  0  0  0  0  0  0  0
   -5.2198    0.0138   -1.4792 H   0  0  0  0  0  0  0  0  0  0  0  0
   -3.5735    1.7661   -1.7371 H   0  0  0  0  0  0  0  0  0  0  0  0
   -2.6984    2.4772   -0.2711 H   0  0  0  0  0  0  0  0  0  0  0  0
  1  2  2  0
  2  3  1  0
  3  4  1  0
  4  5  1  0
  5  6  1  0
  6  7  1  0
  7  8  1  0
  8  9  1  0
  8 10  1  0
  8 11  1  0
  7 12  1  0
  2 13  1  0
 13 14  1  0
 14 15  1  0
 15 16  1  0
 16 17  1  0
 17 18  1  0
 18 19  1  0
 19 20  1  0
 20 21  1  0
 21 22  1  1
 21 23  1  0
 21 24  1  0
 12  4  1  0
 19 14  1  0
 24 15  1  0
 23 17  1  0
  3 25  1  0
  3 26  1  0
  5 27  1  0
  5 28  1  0
  6 29  1  0
  6 30  1  0
  7 31  1  6
 12 32  1  0
 12 33  1  0
 13 34  1  0
 14 35  1  1
 15 36  1  0
 16 37  1  0
 16 38  1  0
 17 39  1  0
 18 40  1  0
 18 41  1  0
 19 42  1  0
 20 43  1  0
 20 44  1  0
 22 45  1  0
 23 46  1  0
 23 47  1  0
 24 48  1  0
 24 49  1  0
M  END
$$$$
