@<TRIPOS>MOLECULE
*****
 49 52 0 0 0
SMALL
GASTEIGER

@<TRIPOS>ATOM
      1 O           1.1658    0.9122    1.2016 O.2     1  UNL1       -0.2744
      2 C           1.0237   -0.2127    0.6647 C.2     1  UNL1        0.2273
      3 C           2.1646   -1.1017    0.4441 C.3     1  UNL1        0.0757
      4 N           3.3855   -0.5119    0.9056 N.3     1  UNL1       -0.2935
      5 C           4.4567   -1.4628    0.6935 C.3     1  UNL1       -0.0000
      6 C           5.6259   -0.6319    0.1631 C.3     1  UNL1       -0.0280
      7 C           4.8639    0.3884   -0.6544 C.3     1  UNL1        0.0682
      8 C           5.7175    1.6095   -0.9178 C.3     1  UNL1        0.3941
      9 F           4.9718    2.4921   -1.6602 F       1  UNL1       -0.1704
     10 F           6.8099    1.1962   -1.6596 F       1  UNL1       -0.1704
     11 F           6.1616    2.1602    0.2678 F       1  UNL1       -0.1704
     12 C           3.6750    0.6884    0.1993 C.3     1  UNL1        0.0104
     13 N          -0.3064   -0.5711    0.2850 N.am    1  UNL1       -0.3109
     14 C          -1.4582    0.2518    0.4736 C.3     1  UNL1        0.0290
     15 C          -2.0749    0.5455   -0.8796 C.3     1  UNL1       -0.0195
     16 C          -2.6325   -0.7037   -1.5251 C.3     1  UNL1       -0.0455
     17 C          -3.7269   -1.2549   -0.6609 C.3     1  UNL1       -0.0378
     18 C          -3.1235   -1.6145    0.6850 C.3     1  UNL1       -0.0455
     19 C          -2.5342   -0.3894    1.3186 C.3     1  UNL1       -0.0195
     20 C          -3.6469    0.6382    1.4650 C.3     1  UNL1       -0.0195
     21 C          -4.2373    1.0120    0.1305 C.3     1  UNL1        0.0670
     22 O          -5.2237    1.9649    0.3642 O.3     1  UNL1       -0.3885
     23 C          -4.8170   -0.2191   -0.4868 C.3     1  UNL1       -0.0211
     24 C          -3.1536    1.5948   -0.7380 C.3     1  UNL1       -0.0195
     25 H           2.0484   -2.1104    0.9048 H       1  UNL1        0.0522
     26 H           2.2685   -1.2808   -0.6585 H       1  UNL1        0.0522
     27 H           4.7278   -2.0219    1.5987 H       1  UNL1        0.0427
     28 H           4.2256   -2.2047   -0.0982 H       1  UNL1        0.0427
     29 H           6.1028   -0.1177    1.0238 H       1  UNL1        0.0283
     30 H           6.3252   -1.2347   -0.4340 H       1  UNL1        0.0283
     31 H           4.6138   -0.0611   -1.6394 H       1  UNL1        0.0401
     32 H           3.9927    1.4531    0.9550 H       1  UNL1        0.0432
     33 H           2.8160    1.0849   -0.4098 H       1  UNL1        0.0432
     34 H          -0.4082   -1.5089   -0.1595 H       1  UNL1        0.1490
     35 H          -1.2239    1.2249    0.9508 H       1  UNL1        0.0504
     36 H          -1.2926    0.9451   -1.5489 H       1  UNL1        0.0320
     37 H          -1.8418   -1.4479   -1.6443 H       1  UNL1        0.0271
     38 H          -2.9857   -0.4099   -2.5335 H       1  UNL1        0.0271
     39 H          -4.1904   -2.1591   -1.0640 H       1  UNL1        0.0302
     40 H          -2.3910   -2.4245    0.5431 H       1  UNL1        0.0271
     41 H          -3.9549   -1.9542    1.3361 H       1  UNL1        0.0271
     42 H          -2.1999   -0.6204    2.3439 H       1  UNL1        0.0320
     43 H          -3.2745    1.5169    2.0378 H       1  UNL1        0.0296
     44 H          -4.4485    0.1522    2.0598 H       1  UNL1        0.0296
     45 H          -4.8953    2.7464    0.8472 H       1  UNL1        0.2102
     46 H          -5.6092   -0.6046    0.1896 H       1  UNL1        0.0296
     47 H          -5.2198    0.0138   -1.4792 H       1  UNL1        0.0296
     48 H          -3.5735    1.7661   -1.7371 H       1  UNL1        0.0296
     49 H          -2.6984    2.4772   -0.2711 H       1  UNL1        0.0296
@<TRIPOS>BOND
     1     1     2    2
     2     2     3    1
     3     3     4    1
     4     4     5    1
     5     5     6    1
     6     6     7    1
     7     7     8    1
     8     8     9    1
     9     8    10    1
    10     8    11    1
    11     7    12    1
    12     2    13   am
    13    13    14    1
    14    14    15    1
    15    15    16    1
    16    16    17    1
    17    17    18    1
    18    18    19    1
    19    19    20    1
    20    20    21    1
    21    21    22    1
    22    21    23    1
    23    21    24    1
    24    12     4    1
    25    19    14    1
    26    24    15    1
    27    23    17    1
    28     3    25    1
    29     3    26    1
    30     5    27    1
    31     5    28    1
    32     6    29    1
    33     6    30    1
    34     7    31    1
    35    12    32    1
    36    12    33    1
    37    13    34    1
    38    14    35    1
    39    15    36    1
    40    16    37    1
    41    16    38    1
    42    17    39    1
    43    18    40    1
    44    18    41    1
    45    19    42    1
    46    20    43    1
    47    20    44    1
    48    22    45    1
    49    23    46    1
    50    23    47    1
    51    24    48    1
    52    24    49    1
