@<TRIPOS>MOLECULE
*****
 50 54 0 0 0
SMALL
GASTEIGER

@<TRIPOS>ATOM
      1 O           1.9617   -0.8292    1.6401 O.2     1  UNL1       -0.2746
      2 C           1.6850   -0.6514    0.3926 C.2     1  UNL1        0.2261
      3 N           0.3625   -0.2818    0.0132 N.am    1  UNL1       -0.2999
      4 C          -0.2866   -0.0133   -1.2250 C.3     1  UNL1        0.0156
      5 C          -1.5912   -0.8192   -1.0507 C.3     1  UNL1       -0.0260
      6 C          -1.9914   -0.3771    0.3337 C.3     1  UNL1        0.0132
      7 C          -2.7041   -1.4957    1.0862 C.3     1  UNL1       -0.0416
      8 C          -3.9519   -1.9441    0.4083 C.3     1  UNL1       -0.0482
      9 C          -4.7640   -0.8515   -0.1908 C.3     1  UNL1       -0.0274
     10 C          -4.2503    0.5010    0.0114 C.ar    1  UNL1       -0.0436
     11 C          -5.1623    1.5443   -0.0688 C.ar    1  UNL1       -0.0583
     12 C          -4.7839    2.8814    0.0800 C.ar    1  UNL1       -0.0615
     13 C          -3.4570    3.1292    0.3091 C.ar    1  UNL1       -0.0615
     14 C          -2.5415    2.0809    0.3891 C.ar    1  UNL1       -0.0577
     15 C          -2.9015    0.7712    0.2467 C.ar    1  UNL1       -0.0365
     16 C          -0.6991   -0.1277    1.0385 C.3     1  UNL1        0.0244
     17 C           2.8221   -0.8669   -0.5246 C.3     1  UNL1        0.0721
     18 C           4.0184    0.0317   -0.3412 C.ar    1  UNL1       -0.0324
     19 C           4.5986    0.2257    0.8890 C.ar    1  UNL1       -0.0562
     20 C           5.7216    1.0253    1.1004 C.ar    1  UNL1       -0.0431
     21 C           6.3074    1.6732    0.0298 C.ar    1  UNL1        0.0410
     22 CL          7.7371    2.6782    0.2271 Cl      1  UNL1       -0.0835
     23 C           5.7372    1.4906   -1.2164 C.ar    1  UNL1       -0.0431
     24 C           4.6262    0.6963   -1.3998 C.ar    1  UNL1       -0.0562
     25 C           3.2026   -2.3777   -0.5987 C.3     1  UNL1       -0.0337
     26 C           2.7473   -1.5759   -1.7973 C.3     1  UNL1       -0.0337
     27 H           0.2121   -0.2909   -2.1393 H       1  UNL1        0.0465
     28 H          -0.5693    1.0672   -1.3402 H       1  UNL1        0.0465
     29 H          -2.3650   -0.5215   -1.7543 H       1  UNL1        0.0289
     30 H          -1.3626   -1.8817   -1.0630 H       1  UNL1        0.0289
     31 H          -1.9937   -2.3438    1.0710 H       1  UNL1        0.0274
     32 H          -2.8461   -1.1603    2.1180 H       1  UNL1        0.0274
     33 H          -3.6787   -2.7145   -0.3740 H       1  UNL1        0.0269
     34 H          -4.5756   -2.4736    1.1507 H       1  UNL1        0.0269
     35 H          -5.8322   -0.8717    0.1587 H       1  UNL1        0.0313
     36 H          -4.8550   -1.0143   -1.3025 H       1  UNL1        0.0313
     37 H          -6.2155    1.3787   -0.2436 H       1  UNL1        0.0620
     38 H          -5.5055    3.6785    0.0135 H       1  UNL1        0.0618
     39 H          -3.0591    4.1323    0.4374 H       1  UNL1        0.0618
     40 H          -1.4971    2.2893    0.5745 H       1  UNL1        0.0621
     41 H          -0.4963   -0.9433    1.7914 H       1  UNL1        0.0473
     42 H          -0.6032    0.8113    1.5815 H       1  UNL1        0.0473
     43 H           4.1389   -0.2912    1.7453 H       1  UNL1        0.0621
     44 H           6.1358    1.1394    2.0855 H       1  UNL1        0.0632
     45 H           6.2130    2.0052   -2.0325 H       1  UNL1        0.0632
     46 H           4.1932    0.5667   -2.3736 H       1  UNL1        0.0621
     47 H           4.2514   -2.6540   -0.4565 H       1  UNL1        0.0279
     48 H           2.4858   -3.0997   -0.1501 H       1  UNL1        0.0279
     49 H           3.5332   -1.3430   -2.5631 H       1  UNL1        0.0279
     50 H           1.8483   -1.9824   -2.2735 H       1  UNL1        0.0279
@<TRIPOS>BOND
     1     1     2    2
     2     2     3   am
     3     3     4    1
     4     4     5    1
     5     5     6    1
     6     6     7    1
     7     7     8    1
     8     8     9    1
     9     9    10    1
    10    10    11   ar
    11    11    12   ar
    12    12    13   ar
    13    13    14   ar
    14    14    15   ar
    15     6    16    1
    16     2    17    1
    17    17    18    1
    18    18    19   ar
    19    19    20   ar
    20    20    21   ar
    21    21    22    1
    22    21    23   ar
    23    23    24   ar
    24    17    25    1
    25    25    26    1
    26    16     3    1
    27    26    17    1
    28    15     6    1
    29    24    18   ar
    30    15    10   ar
    31     4    27    1
    32     4    28    1
    33     5    29    1
    34     5    30    1
    35     7    31    1
    36     7    32    1
    37     8    33    1
    38     8    34    1
    39     9    35    1
    40     9    36    1
    41    11    37    1
    42    12    38    1
    43    13    39    1
    44    14    40    1
    45    16    41    1
    46    16    42    1
    47    19    43    1
    48    20    44    1
    49    23    45    1
    50    24    46    1
    51    25    47    1
    52    25    48    1
    53    26    49    1
    54    26    50    1
