@<TRIPOS>MOLECULE
*****
 46 50 0 0 0
SMALL
GASTEIGER

@<TRIPOS>ATOM
      1 C          -1.7923   -2.0131   -2.6792 C.3     1  UNL1        0.0789
      2 O          -1.7538   -1.3564   -1.4483 O.3     1  UNL1       -0.4930
      3 C          -2.3547   -1.7712   -0.2903 C.ar    1  UNL1        0.1439
      4 C          -3.0790   -2.9460   -0.2927 C.ar    1  UNL1       -0.0179
      5 C          -3.7077   -3.4168    0.8419 C.ar    1  UNL1       -0.0582
      6 C          -3.6088   -2.6850    2.0259 C.ar    1  UNL1       -0.0596
      7 C          -2.8839   -1.5270    1.9917 C.ar    1  UNL1       -0.0341
      8 C          -2.2337   -1.0207    0.8582 C.ar    1  UNL1        0.0927
      9 N          -1.4982    0.1977    0.9148 N.ar    1  UNL1       -0.2601
     10 C          -2.0017    1.2878    0.3055 C.ar    1  UNL1        0.2678
     11 O          -3.1176    1.1877   -0.2990 O.2     1  UNL1       -0.2665
     12 C          -1.3507    2.5068    0.3141 C.ar    1  UNL1        0.0835
     13 C          -1.8918    3.6040   -0.3191 C.ar    1  UNL1        0.0554
     14 CL         -3.4264    3.3775   -1.1235 Cl      1  UNL1       -0.0827
     15 C          -1.1793    4.7829   -0.2643 C.ar    1  UNL1       -0.0425
     16 C           0.0262    4.8934    0.3879 C.ar    1  UNL1       -0.0583
     17 C           0.5873    3.7877    1.0350 C.ar    1  UNL1       -0.0354
     18 C          -0.1361    2.6003    0.9766 C.ar    1  UNL1        0.0796
     19 N           0.3453    1.4915    1.5787 N.ar    1  UNL1       -0.2323
     20 C          -0.3188    0.3193    1.5488 C.ar    1  UNL1        0.1278
     21 C           0.2714   -0.8600    2.2335 C.3     1  UNL1        0.0584
     22 S           1.3221   -1.7206    1.0106 S.3     1  UNL1       -0.0959
     23 C           2.7050   -0.6921    0.5741 C.ar    1  UNL1        0.1280
     24 C           3.6715   -1.0730   -0.3276 C.ar    1  UNL1        0.1394
     25 N           3.8234   -2.2010   -1.0486 N.ar    1  UNL1       -0.2316
     26 C           4.9405   -2.1058   -1.8002 C.ar    1  UNL1        0.0957
     27 N           5.5191   -0.9095   -1.5674 N.ar    1  UNL1       -0.3292
     28 C           4.7421   -0.2818   -0.6683 C.ar    1  UNL1        0.1619
     29 N           4.8474    0.9388   -0.0820 N.ar    1  UNL1       -0.2163
     30 C           3.8878    1.2974    0.8027 C.ar    1  UNL1        0.1196
     31 N           2.8527    0.5350    1.1335 N.ar    1  UNL1       -0.2269
     32 H          -1.9301   -3.0950   -2.6487 H       1  UNL1        0.0660
     33 H          -0.8208   -1.8241   -3.2060 H       1  UNL1        0.0660
     34 H          -2.6219   -1.6130   -3.3341 H       1  UNL1        0.0660
     35 H          -3.2186   -3.5814   -1.1409 H       1  UNL1        0.0655
     36 H          -4.2878   -4.3272    0.9035 H       1  UNL1        0.0619
     37 H          -4.0677   -2.9770    2.9620 H       1  UNL1        0.0618
     38 H          -2.7797   -0.9201    2.8992 H       1  UNL1        0.0639
     39 H          -1.6619    5.6124   -0.7844 H       1  UNL1        0.0632
     40 H           0.5471    5.8401    0.4027 H       1  UNL1        0.0619
     41 H           1.5332    3.8448    1.5556 H       1  UNL1        0.0639
     42 H           0.8726   -0.5499    3.1205 H       1  UNL1        0.0460
     43 H          -0.4841   -1.6142    2.5400 H       1  UNL1        0.0460
     44 H           5.3623   -2.8255   -2.4939 H       1  UNL1        0.1027
     45 H           6.3980   -0.4558   -1.9535 H       1  UNL1        0.1682
     46 H           3.9520    2.2584    1.2778 H       1  UNL1        0.1048
@<TRIPOS>BOND
     1     1     2    1
     2     2     3    1
     3     3     4   ar
     4     4     5   ar
     5     5     6   ar
     6     6     7   ar
     7     7     8   ar
     8     8     9    1
     9     9    10   ar
    10    10    11    2
    11    10    12   ar
    12    12    13   ar
    13    13    14    1
    14    13    15   ar
    15    15    16   ar
    16    16    17   ar
    17    17    18   ar
    18    18    19   ar
    19    19    20   ar
    20    20    21    1
    21    21    22    1
    22    22    23    1
    23    23    24   ar
    24    24    25   ar
    25    25    26   ar
    26    26    27   ar
    27    27    28   ar
    28    28    29   ar
    29    29    30   ar
    30    30    31   ar
    31     8     3   ar
    32    20     9   ar
    33    31    23   ar
    34    18    12   ar
    35    28    24   ar
    36     1    32    1
    37     1    33    1
    38     1    34    1
    39     4    35    1
    40     5    36    1
    41     6    37    1
    42     7    38    1
    43    15    39    1
    44    16    40    1
    45    17    41    1
    46    21    42    1
    47    21    43    1
    48    26    44    1
    49    27    45    1
    50    30    46    1
