
     RDKit          3D

 42 44  0  0  0  0  0  0  0  0999 V2000
   -3.0208    1.6263   -1.6719 C   0  0  0  0  0  0  0  0  0  0  0  0
   -3.2821    1.0396   -0.3216 C   0  0  0  0  0  0  0  0  0  0  0  0
   -4.5252    1.0003    0.2745 C   0  0  0  0  0  0  0  0  0  0  0  0
   -4.3402    0.3844    1.5025 C   0  0  0  0  0  0  0  0  0  0  0  0
   -5.3929    0.1292    2.4774 C   0  0  0  0  0  0  0  0  0  0  0  0
   -6.5832    0.4626    2.2626 O   0  0  0  0  0  0  0  0  0  0  0  0
   -5.1039   -0.4944    3.6788 O   0  0  0  0  0  0  0  0  0  0  0  0
   -3.0503    0.0836    1.6072 N   0  0  0  0  0  0  0  0  0  0  0  0
   -2.4091    0.4718    0.5205 N   0  0  0  0  0  0  0  0  0  0  0  0
   -0.9871    0.2947    0.3087 C   0  0  0  0  0  0  0  0  0  0  0  0
   -0.6972   -1.0120   -0.3563 C   0  0  0  0  0  0  0  0  0  0  0  0
   -1.7003   -1.8937   -0.7001 C   0  0  0  0  0  0  0  0  0  0  0  0
   -1.3659   -3.0840   -1.3121 C   0  0  0  0  0  0  0  0  0  0  0  0
   -2.7746   -4.2936   -1.7809 Br  0  0  0  0  0  0  0  0  0  0  0  0
   -0.0475   -3.3905   -1.5776 C   0  0  0  0  0  0  0  0  0  0  0  0
    0.9358   -2.4900   -1.2229 C   0  0  0  0  0  0  0  0  0  0  0  0
    0.6387   -1.2820   -0.6055 C   0  0  0  0  0  0  0  0  0  0  0  0
    1.6298   -0.3769   -0.2492 O   0  0  0  0  0  0  0  0  0  0  0  0
    2.9773   -0.7271   -0.5386 C   0  0  0  0  0  0  0  0  0  0  0  0
    3.9177    0.3368   -0.1001 C   0  0  0  0  0  0  0  0  0  0  0  0
    4.2458    1.3440   -0.9836 C   0  0  0  0  0  0  0  0  0  0  0  0
    5.1210    2.3621   -0.6212 C   0  0  0  0  0  0  0  0  0  0  0  0
    5.6864    2.3920    0.6363 C   0  0  0  0  0  0  0  0  0  0  0  0
    5.3656    1.3892    1.5295 C   0  0  0  0  0  0  0  0  0  0  0  0
    4.4867    0.3722    1.1567 C   0  0  0  0  0  0  0  0  0  0  0  0
   -2.0334    2.0993   -1.7339 H   0  0  0  0  0  0  0  0  0  0  0  0
   -3.1904    0.8619   -2.4747 H   0  0  0  0  0  0  0  0  0  0  0  0
   -3.7751    2.4188   -1.8630 H   0  0  0  0  0  0  0  0  0  0  0  0
   -5.4810    1.3610   -0.0946 H   0  0  0  0  0  0  0  0  0  0  0  0
   -5.6533   -0.3143    4.5257 H   0  0  0  0  0  0  0  0  0  0  0  0
   -0.6369    1.1177   -0.3253 H   0  0  0  0  0  0  0  0  0  0  0  0
   -0.4576    0.3829    1.2793 H   0  0  0  0  0  0  0  0  0  0  0  0
   -2.7267   -1.6695   -0.5005 H   0  0  0  0  0  0  0  0  0  0  0  0
    0.2331   -4.3171   -2.0558 H   0  0  0  0  0  0  0  0  0  0  0  0
    1.9921   -2.7148   -1.4254 H   0  0  0  0  0  0  0  0  0  0  0  0
    3.1177   -0.9853   -1.6069 H   0  0  0  0  0  0  0  0  0  0  0  0
    3.2597   -1.6449    0.0402 H   0  0  0  0  0  0  0  0  0  0  0  0
    3.8302    1.3746   -1.9935 H   0  0  0  0  0  0  0  0  0  0  0  0
    5.3803    3.1598   -1.3221 H   0  0  0  0  0  0  0  0  0  0  0  0
    6.3661    3.2029    0.8850 H   0  0  0  0  0  0  0  0  0  0  0  0
    5.8170    1.4301    2.5058 H   0  0  0  0  0  0  0  0  0  0  0  0
    4.2338   -0.4077    1.8436 H   0  0  0  0  0  0  0  0  0  0  0  0
  1  2  1  0
  2  3  2  0
  3  4  1  0
  4  5  1  0
  5  6  2  0
  5  7  1  0
  4  8  2  0
  8  9  1  0
  9 10  1  0
 10 11  1  0
 11 12  2  0
 12 13  1  0
 13 14  1  0
 13 15  2  0
 15 16  1  0
 16 17  2  0
 17 18  1  0
 18 19  1  0
 19 20  1  0
 20 21  2  0
 21 22  1  0
 22 23  2  0
 23 24  1  0
 24 25  2  0
  9  2  1  0
 17 11  1  0
 25 20  1  0
  1 26  1  0
  1 27  1  0
  1 28  1  0
  3 29  1  0
  7 30  1  0
 10 31  1  0
 10 32  1  0
 12 33  1  0
 15 34  1  0
 16 35  1  0
 19 36  1  0
 19 37  1  0
 21 38  1  0
 22 39  1  0
 23 40  1  0
 24 41  1  0
 25 42  1  0
M  END
$$$$
