@<TRIPOS>MOLECULE
*****
 42 44 0 0 0
SMALL
GASTEIGER

@<TRIPOS>ATOM
      1 C          -3.0208    1.6263   -1.6719 C.3     1  UNL1       -0.0226
      2 C          -3.2821    1.0396   -0.3216 C.ar    1  UNL1        0.0373
      3 C          -4.5252    1.0003    0.2745 C.ar    1  UNL1       -0.0069
      4 C          -4.3402    0.3844    1.5025 C.ar    1  UNL1        0.1693
      5 C          -5.3929    0.1292    2.4774 C.2     1  UNL1        0.3571
      6 O          -6.5832    0.4626    2.2626 O.2     1  UNL1       -0.2433
      7 O          -5.1039   -0.4944    3.6788 O.3     1  UNL1       -0.4760
      8 N          -3.0503    0.0836    1.6072 N.ar    1  UNL1       -0.1640
      9 N          -2.4091    0.4718    0.5205 N.ar    1  UNL1       -0.2633
     10 C          -0.9871    0.2947    0.3087 C.3     1  UNL1        0.0703
     11 C          -0.6972   -1.0120   -0.3563 C.ar    1  UNL1        0.0166
     12 C          -1.7003   -1.8937   -0.7001 C.ar    1  UNL1       -0.0393
     13 C          -1.3659   -3.0840   -1.3121 C.ar    1  UNL1        0.0184
     14 BR         -2.7746   -4.2936   -1.7809 Br      1  UNL1       -0.0503
     15 C          -0.0475   -3.3905   -1.5776 C.ar    1  UNL1       -0.0443
     16 C           0.9358   -2.4900   -1.2229 C.ar    1  UNL1       -0.0185
     17 C           0.6387   -1.2820   -0.6055 C.ar    1  UNL1        0.1260
     18 O           1.6298   -0.3769   -0.2492 O.3     1  UNL1       -0.4870
     19 C           2.9773   -0.7271   -0.5386 C.3     1  UNL1        0.1146
     20 C           3.9177    0.3368   -0.1001 C.ar    1  UNL1       -0.0104
     21 C           4.2458    1.3440   -0.9836 C.ar    1  UNL1       -0.0554
     22 C           5.1210    2.3621   -0.6212 C.ar    1  UNL1       -0.0614
     23 C           5.6864    2.3920    0.6363 C.ar    1  UNL1       -0.0617
     24 C           5.3656    1.3892    1.5295 C.ar    1  UNL1       -0.0614
     25 C           4.4867    0.3722    1.1567 C.ar    1  UNL1       -0.0554
     26 H          -2.0334    2.0993   -1.7339 H       1  UNL1        0.0292
     27 H          -3.1904    0.8619   -2.4747 H       1  UNL1        0.0292
     28 H          -3.7751    2.4188   -1.8630 H       1  UNL1        0.0292
     29 H          -5.4810    1.3610   -0.0946 H       1  UNL1        0.0659
     30 H          -5.6533   -0.3143    4.5257 H       1  UNL1        0.2955
     31 H          -0.6369    1.1177   -0.3253 H       1  UNL1        0.0560
     32 H          -0.4576    0.3829    1.2793 H       1  UNL1        0.0560
     33 H          -2.7267   -1.6695   -0.5005 H       1  UNL1        0.0633
     34 H           0.2331   -4.3171   -2.0558 H       1  UNL1        0.0630
     35 H           1.9921   -2.7148   -1.4254 H       1  UNL1        0.0654
     36 H           3.1177   -0.9853   -1.6069 H       1  UNL1        0.0748
     37 H           3.2597   -1.6449    0.0402 H       1  UNL1        0.0748
     38 H           3.8302    1.3746   -1.9935 H       1  UNL1        0.0621
     39 H           5.3803    3.1598   -1.3221 H       1  UNL1        0.0618
     40 H           6.3661    3.2029    0.8850 H       1  UNL1        0.0618
     41 H           5.8170    1.4301    2.5058 H       1  UNL1        0.0618
     42 H           4.2338   -0.4077    1.8436 H       1  UNL1        0.0621
@<TRIPOS>BOND
     1     1     2    1
     2     2     3   ar
     3     3     4   ar
     4     4     5    1
     5     5     6    2
     6     5     7    1
     7     4     8   ar
     8     8     9   ar
     9     9    10    1
    10    10    11    1
    11    11    12   ar
    12    12    13   ar
    13    13    14    1
    14    13    15   ar
    15    15    16   ar
    16    16    17   ar
    17    17    18    1
    18    18    19    1
    19    19    20    1
    20    20    21   ar
    21    21    22   ar
    22    22    23   ar
    23    23    24   ar
    24    24    25   ar
    25     9     2   ar
    26    17    11   ar
    27    25    20   ar
    28     1    26    1
    29     1    27    1
    30     1    28    1
    31     3    29    1
    32     7    30    1
    33    10    31    1
    34    10    32    1
    35    12    33    1
    36    15    34    1
    37    16    35    1
    38    19    36    1
    39    19    37    1
    40    21    38    1
    41    22    39    1
    42    23    40    1
    43    24    41    1
    44    25    42    1
