@<TRIPOS>MOLECULE
*****
 72 77 0 0 0
SMALL
GASTEIGER

@<TRIPOS>ATOM
      1 C          -3.5006    6.6346   -2.9348 C.3     1  UNL1        0.0804
      2 O          -2.9419    5.3532   -2.7314 O.3     1  UNL1       -0.4795
      3 C          -2.2314    5.1405   -1.5484 C.ar    1  UNL1        0.2191
      4 C          -1.6538    3.9014   -1.2824 C.ar    1  UNL1        0.0404
      5 C          -0.9548    3.6906   -0.1197 C.ar    1  UNL1        0.1364
      6 N          -0.3870    2.4074    0.0993 N.am    1  UNL1       -0.2240
      7 C           0.9091    1.9312   -0.2705 C.2     1  UNL1        0.3219
      8 O           1.6047    2.4265   -1.2059 O.2     1  UNL1       -0.2512
      9 N           1.2626    0.8345    0.5776 N.am    1  UNL1       -0.1905
     10 C           2.4732    0.0909    0.5249 C.ar    1  UNL1        0.0636
     11 C           3.5470    0.5059    1.2767 C.ar    1  UNL1       -0.0363
     12 C           4.7244   -0.2212    1.2229 C.ar    1  UNL1       -0.0339
     13 C           4.8596   -1.3446    0.4441 C.ar    1  UNL1        0.0711
     14 C           6.0686   -2.1507    0.3448 C.ar    1  UNL1        0.0004
     15 C           7.2235   -1.8639    1.0347 C.ar    1  UNL1       -0.0518
     16 C           8.3580   -2.6566    0.9146 C.ar    1  UNL1       -0.0472
     17 C           8.3899   -3.7688    0.1019 C.ar    1  UNL1        0.0589
     18 C           9.5800   -4.6031   -0.0262 C.2     1  UNL1        0.3368
     19 O          10.5941   -4.2780    0.6348 O.2     1  UNL1       -0.2451
     20 O           9.6528   -5.7237   -0.8291 O.3     1  UNL1       -0.4771
     21 C           7.2274   -4.0616   -0.5957 C.ar    1  UNL1       -0.0472
     22 C           6.1038   -3.2755   -0.4760 C.ar    1  UNL1       -0.0518
     23 N           3.7768   -1.7012   -0.2679 N.ar    1  UNL1       -0.2531
     24 C           2.6131   -1.0328   -0.2521 C.ar    1  UNL1        0.0501
     25 C           0.1553    0.6672    1.4574 C.2     1  UNL1        0.2516
     26 O           0.2109    0.1065    2.5927 O.2     1  UNL1       -0.2724
     27 C          -1.0077    1.2733    0.7609 C.3     1  UNL1        0.1240
     28 C          -2.0923    1.7161    1.6948 C.3     1  UNL1       -0.0095
     29 C          -3.0328    0.5944    2.0578 C.3     1  UNL1        0.0017
     30 N          -3.6622   -0.0146    0.9253 N.3     1  UNL1       -0.2965
     31 C          -3.7407   -1.4443    1.1501 C.3     1  UNL1        0.0415
     32 C          -4.3839   -2.1512    0.0071 C.ar    1  UNL1        0.0581
     33 N          -3.6843   -2.8637   -0.8941 N.ar    1  UNL1       -0.2583
     34 C          -4.3152   -3.4851   -1.9112 C.ar    1  UNL1        0.0279
     35 C          -5.6856   -3.4075   -2.0539 C.ar    1  UNL1       -0.0433
     36 C          -6.4016   -2.6820   -1.1367 C.ar    1  UNL1       -0.0557
     37 C          -5.7522   -2.0479   -0.0979 C.ar    1  UNL1       -0.0279
     38 C          -6.5330   -1.2616    0.8951 C.3     1  UNL1       -0.0380
     39 C          -3.0277    0.3068   -0.3304 C.3     1  UNL1        0.0017
     40 C          -1.5201    0.2678   -0.2413 C.3     1  UNL1       -0.0095
     41 N          -0.8565    4.7180    0.7336 N.ar    1  UNL1       -0.2200
     42 C          -1.4024    5.9207    0.5028 C.ar    1  UNL1        0.1219
     43 N          -2.0834    6.1131   -0.6384 N.ar    1  UNL1       -0.2013
     44 H          -2.7454    7.4201   -2.6671 H       1  UNL1        0.0660
     45 H          -4.3695    6.7293   -2.2298 H       1  UNL1        0.0660
     46 H          -3.8895    6.7811   -3.9499 H       1  UNL1        0.0660
     47 H          -1.7788    3.1261   -2.0211 H       1  UNL1        0.0705
     48 H           3.4292    1.3867    1.8825 H       1  UNL1        0.0637
     49 H           5.5430    0.1117    1.8082 H       1  UNL1        0.0639
     50 H           7.2291   -0.9853    1.6897 H       1  UNL1        0.0624
     51 H           9.2437   -2.3936    1.4757 H       1  UNL1        0.0626
     52 H          10.2640   -6.5233   -0.6033 H       1  UNL1        0.2954
     53 H           7.2415   -4.9399   -1.2420 H       1  UNL1        0.0626
     54 H           5.1881   -3.5072   -1.0261 H       1  UNL1        0.0624
     55 H           1.7739   -1.3660   -0.8463 H       1  UNL1        0.0849
     56 H          -2.6701    2.5803    1.3133 H       1  UNL1        0.0303
     57 H          -1.6143    2.0622    2.6373 H       1  UNL1        0.0303
     58 H          -3.8249    1.0195    2.7086 H       1  UNL1        0.0427
     59 H          -2.4826   -0.1480    2.7023 H       1  UNL1        0.0427
     60 H          -2.7531   -1.8931    1.3076 H       1  UNL1        0.0491
     61 H          -4.3429   -1.5990    2.0665 H       1  UNL1        0.0491
     62 H          -3.6975   -4.0420   -2.6025 H       1  UNL1        0.0829
     63 H          -6.1580   -3.9231   -2.8882 H       1  UNL1        0.0633
     64 H          -7.4935   -2.6191   -1.2487 H       1  UNL1        0.0621
     65 H          -7.6153   -1.3373    0.6688 H       1  UNL1        0.0278
     66 H          -6.2475   -0.2081    0.9199 H       1  UNL1        0.0278
     67 H          -6.3920   -1.6677    1.9142 H       1  UNL1        0.0278
     68 H          -3.3340   -0.4747   -1.0609 H       1  UNL1        0.0427
     69 H          -3.3608    1.2769   -0.7423 H       1  UNL1        0.0427
     70 H          -1.1340    0.5722   -1.2373 H       1  UNL1        0.0303
     71 H          -1.1760   -0.7478   -0.0413 H       1  UNL1        0.0303
     72 H          -1.3166    6.7479    1.2023 H       1  UNL1        0.1049
@<TRIPOS>BOND
     1     1     2    1
     2     2     3    1
     3     3     4   ar
     4     4     5   ar
     5     5     6    1
     6     6     7   am
     7     7     8    2
     8     7     9   am
     9     9    10    1
    10    10    11   ar
    11    11    12   ar
    12    12    13   ar
    13    13    14    1
    14    14    15   ar
    15    15    16   ar
    16    16    17   ar
    17    17    18    1
    18    18    19    2
    19    18    20    1
    20    17    21   ar
    21    21    22   ar
    22    13    23   ar
    23    23    24   ar
    24     9    25   am
    25    25    26    2
    26    25    27    1
    27    27    28    1
    28    28    29    1
    29    29    30    1
    30    30    31    1
    31    31    32    1
    32    32    33   ar
    33    33    34   ar
    34    34    35   ar
    35    35    36   ar
    36    36    37   ar
    37    37    38    1
    38    30    39    1
    39    39    40    1
    40     5    41   ar
    41    41    42   ar
    42    42    43   ar
    43    43     3   ar
    44    27     6    1
    45    37    32   ar
    46    24    10   ar
    47    40    27    1
    48    22    14   ar
    49     1    44    1
    50     1    45    1
    51     1    46    1
    52     4    47    1
    53    11    48    1
    54    12    49    1
    55    15    50    1
    56    16    51    1
    57    20    52    1
    58    21    53    1
    59    22    54    1
    60    24    55    1
    61    28    56    1
    62    28    57    1
    63    29    58    1
    64    29    59    1
    65    31    60    1
    66    31    61    1
    67    34    62    1
    68    35    63    1
    69    36    64    1
    70    38    65    1
    71    38    66    1
    72    38    67    1
    73    39    68    1
    74    39    69    1
    75    40    70    1
    76    40    71    1
    77    42    72    1
