@<TRIPOS>MOLECULE
*****
 45 47 0 0 0
SMALL
GASTEIGER

@<TRIPOS>ATOM
      1 O          -6.1056   -0.7933    2.8376 O.3     1  UNL1       -0.4771
      2 C          -5.8849   -0.3855    1.5544 C.2     1  UNL1        0.3376
      3 O          -7.0669   -0.2133    1.2157 O.2     1  UNL1       -0.2451
      4 C          -4.5629   -0.2620    0.9659 C.ar    1  UNL1        0.0730
      5 C          -4.3819    0.1570   -0.3215 C.ar    1  UNL1        0.0762
      6 C          -3.0781    0.2226   -0.7498 C.ar    1  UNL1       -0.0046
      7 C          -1.9865   -0.0981    0.0169 C.ar    1  UNL1        0.1293
      8 O          -0.7095    0.0030   -0.5130 O.3     1  UNL1       -0.4541
      9 C          -0.1904   -1.1235   -1.1490 C.ar    1  UNL1        0.1495
     10 C           1.0779   -1.0589   -1.6881 C.ar    1  UNL1        0.0764
     11 N           1.8995    0.1253   -1.6259 N.am    1  UNL1       -0.2785
     12 C           2.6720    0.0874   -0.4538 C.2     1  UNL1        0.2486
     13 O           2.4842   -0.9433    0.2670 O.2     1  UNL1       -0.2698
     14 C           3.6329    1.0930   -0.0143 C.ar    1  UNL1        0.0434
     15 C           4.2812    0.8447    1.1793 C.ar    1  UNL1        0.0277
     16 C           5.2068    1.7518    1.6623 C.ar    1  UNL1        0.2739
     17 C           5.4403    2.8796    0.9141 C.ar    1  UNL1        0.0156
     18 C           4.7925    3.1368   -0.2873 C.ar    1  UNL1       -0.0546
     19 C           3.8585    2.2138   -0.7673 C.ar    1  UNL1       -0.0492
     20 N           5.8885    1.5193    2.8896 N.pl3   1  UNL1        0.0796
     21 O           6.7927    2.4499    3.3184 O.co2   1  UNL1       -0.5760
     22 O           5.6478    0.4858    3.5359 O.2     1  UNL1        0.0414
     23 C           1.6809   -2.1334   -2.3425 C.ar    1  UNL1       -0.0369
     24 C           0.9918   -3.3207   -2.4646 C.ar    1  UNL1       -0.0598
     25 C          -0.2742   -3.3556   -1.9158 C.ar    1  UNL1       -0.0582
     26 C          -0.8889   -2.3080   -1.2659 C.ar    1  UNL1       -0.0175
     27 C          -2.1974   -0.5171    1.3098 C.ar    1  UNL1       -0.0185
     28 C          -3.4917   -0.5877    1.7515 C.ar    1  UNL1       -0.0435
     29 C          -5.4390    0.5228   -1.2390 C.2     1  UNL1        0.3377
     30 O          -5.1602    0.9377   -2.5167 O.3     1  UNL1       -0.4771
     31 O          -6.6790    0.5574   -1.1439 O.2     1  UNL1       -0.2451
     32 H          -6.7092   -0.4179    3.5416 H       1  UNL1        0.2954
     33 H          -2.8769    0.5546   -1.7802 H       1  UNL1        0.0663
     34 H           2.0278    0.9676   -2.2520 H       1  UNL1        0.1552
     35 H           4.1032   -0.0431    1.7768 H       1  UNL1        0.0693
     36 H           6.1780    3.5741    1.3265 H       1  UNL1        0.0685
     37 H           5.0343    4.0385   -0.8046 H       1  UNL1        0.0620
     38 H           3.3554    2.4157   -1.7024 H       1  UNL1        0.0625
     39 H           2.6717   -2.0843   -2.7642 H       1  UNL1        0.0637
     40 H           1.3822   -4.2118   -2.9587 H       1  UNL1        0.0618
     41 H          -0.8660   -4.2676   -1.9819 H       1  UNL1        0.0619
     42 H          -1.8702   -2.3889   -0.8599 H       1  UNL1        0.0655
     43 H          -1.3737   -0.7849    1.9657 H       1  UNL1        0.0654
     44 H          -3.6448   -0.9235    2.7848 H       1  UNL1        0.0627
     45 H          -5.6624    1.6841   -2.9623 H       1  UNL1        0.2954
@<TRIPOS>UNITY_ATOM_ATTR
20 1
charge 1
21 1
charge -1
@<TRIPOS>BOND
     1     1     2    1
     2     2     3    2
     3     2     4    1
     4     4     5   ar
     5     5     6   ar
     6     6     7   ar
     7     7     8    1
     8     8     9    1
     9     9    10   ar
    10    10    11    1
    11    11    12   am
    12    12    13    2
    13    12    14    1
    14    14    15   ar
    15    15    16   ar
    16    16    17   ar
    17    17    18   ar
    18    18    19   ar
    19    16    20    1
    20    20    21    1
    21    20    22    2
    22    10    23   ar
    23    23    24   ar
    24    24    25   ar
    25    25    26   ar
    26     7    27   ar
    27    27    28   ar
    28     5    29    1
    29    29    30    1
    30    29    31    2
    31    28     4   ar
    32    26     9   ar
    33    19    14   ar
    34     1    32    1
    35     6    33    1
    36    11    34    1
    37    15    35    1
    38    17    36    1
    39    18    37    1
    40    19    38    1
    41    23    39    1
    42    24    40    1
    43    25    41    1
    44    26    42    1
    45    27    43    1
    46    28    44    1
    47    30    45    1
