
     RDKit          3D

 67 72  0  0  0  0  0  0  0  0999 V2000
    3.6197    1.9032   -0.7043 O   0  0  0  0  0  0  0  0  0  0  0  0
    3.4683    0.6483   -0.4880 C   0  0  0  0  0  0  0  0  0  0  0  0
    2.1080    0.1774   -0.4015 C   0  0  0  0  0  0  0  0  0  0  0  0
    1.1631    0.8470    0.3481 C   0  0  0  0  0  0  0  0  0  0  0  0
   -0.1582    0.3984    0.4397 C   0  0  0  0  0  0  0  0  0  0  0  0
   -1.1698    1.1167    1.2364 C   0  0  1  0  0  0  0  0  0  0  0  0
   -1.1356    0.6108    2.6439 C   0  0  0  0  0  0  0  0  0  0  0  0
   -1.5807    1.8333    3.4353 C   0  0  0  0  0  0  0  0  0  0  0  0
   -0.8859    2.9504    2.6496 C   0  0  0  0  0  0  0  0  0  0  0  0
   -0.9728    2.5314    1.2740 N   0  0  0  0  0  0  0  0  0  0  0  0
   -0.8773    3.3626    0.1352 C   0  0  0  0  0  0  0  0  0  0  0  0
   -0.6416    4.7105    0.3001 C   0  0  0  0  0  0  0  0  0  0  0  0
   -0.5379    5.5808   -0.7710 C   0  0  0  0  0  0  0  0  0  0  0  0
   -0.3066    6.8963   -0.5496 F   0  0  0  0  0  0  0  0  0  0  0  0
   -0.6702    5.1159   -2.0602 C   0  0  0  0  0  0  0  0  0  0  0  0
   -0.9072    3.7578   -2.2270 C   0  0  0  0  0  0  0  0  0  0  0  0
   -1.0350    3.3186   -3.5100 F   0  0  0  0  0  0  0  0  0  0  0  0
   -1.0077    2.9036   -1.1516 C   0  0  0  0  0  0  0  0  0  0  0  0
   -0.5359   -0.7432   -0.2334 C   0  0  0  0  0  0  0  0  0  0  0  0
   -1.7449   -1.2310   -0.2023 O   0  0  0  0  0  0  0  0  0  0  0  0
   -2.1521   -2.3222   -0.8311 C   0  0  0  0  0  0  0  0  0  0  0  0
   -3.5145   -2.7351   -0.7011 N   0  0  0  0  0  0  0  0  0  0  0  0
   -4.4415   -1.9865    0.1228 C   0  0  0  0  0  0  0  0  0  0  0  0
   -5.6271   -2.8735    0.4391 C   0  0  0  0  0  0  0  0  0  0  0  0
   -6.2741   -3.2864   -0.6904 O   0  0  0  0  0  0  0  0  0  0  0  0
   -5.5001   -3.7206   -1.7285 C   0  0  0  0  0  0  0  0  0  0  0  0
   -4.0215   -3.8945   -1.3719 C   0  0  0  0  0  0  0  0  0  0  0  0
   -1.2412   -3.0077   -1.5809 C   0  0  0  0  0  0  0  0  0  0  0  0
    0.0436   -2.5757   -1.6740 C   0  0  0  0  0  0  0  0  0  0  0  0
    0.9418   -3.1490   -2.3430 O   0  0  0  0  0  0  0  0  0  0  0  0
    0.4016   -1.4314   -0.9935 C   0  0  0  0  0  0  0  0  0  0  0  0
    1.7185   -0.9572   -1.0665 C   0  0  0  0  0  0  0  0  0  0  0  0
    4.6172   -0.1309   -0.3580 N   0  0  0  0  0  0  0  0  0  0  0  0
    4.6600   -1.5651   -0.1173 C   0  0  0  0  0  0  0  0  0  0  0  0
    5.9547   -1.9624    0.5610 C   0  0  0  0  0  0  0  0  0  0  0  0
    6.4758   -0.9887    1.3679 O   0  0  0  0  0  0  0  0  0  0  0  0
    6.7043    0.2353    0.8102 C   0  0  0  0  0  0  0  0  0  0  0  0
    5.9176    0.5019   -0.4561 C   0  0  0  0  0  0  0  0  0  0  0  0
    1.3973    1.7316    0.8875 H   0  0  0  0  0  0  0  0  0  0  0  0
   -2.1873    0.8525    0.8306 H   0  0  0  0  0  0  0  0  0  0  0  0
   -0.0907    0.3479    2.9655 H   0  0  0  0  0  0  0  0  0  0  0  0
   -1.7689   -0.2662    2.8282 H   0  0  0  0  0  0  0  0  0  0  0  0
   -2.6703    1.9061    3.3455 H   0  0  0  0  0  0  0  0  0  0  0  0
   -1.2361    1.8042    4.4784 H   0  0  0  0  0  0  0  0  0  0  0  0
   -1.4873    3.8617    2.8525 H   0  0  0  0  0  0  0  0  0  0  0  0
    0.1403    3.0232    3.0088 H   0  0  0  0  0  0  0  0  0  0  0  0
   -0.5256    5.1437    1.3042 H   0  0  0  0  0  0  0  0  0  0  0  0
   -0.5893    5.7932   -2.8877 H   0  0  0  0  0  0  0  0  0  0  0  0
   -1.1911    1.8630   -1.3207 H   0  0  0  0  0  0  0  0  0  0  0  0
   -3.8888   -1.7957    1.0908 H   0  0  0  0  0  0  0  0  0  0  0  0
   -4.7057   -1.0018   -0.2610 H   0  0  0  0  0  0  0  0  0  0  0  0
   -6.3287   -2.2845    1.0643 H   0  0  0  0  0  0  0  0  0  0  0  0
   -5.2451   -3.7146    1.0672 H   0  0  0  0  0  0  0  0  0  0  0  0
   -5.5595   -2.9514   -2.5522 H   0  0  0  0  0  0  0  0  0  0  0  0
   -5.8879   -4.6558   -2.1972 H   0  0  0  0  0  0  0  0  0  0  0  0
   -4.0003   -4.7456   -0.6344 H   0  0  0  0  0  0  0  0  0  0  0  0
   -3.5027   -4.1606   -2.3088 H   0  0  0  0  0  0  0  0  0  0  0  0
   -1.5186   -3.9055   -2.1130 H   0  0  0  0  0  0  0  0  0  0  0  0
    2.4488   -1.4857   -1.6584 H   0  0  0  0  0  0  0  0  0  0  0  0
    4.6555   -2.1440   -1.0899 H   0  0  0  0  0  0  0  0  0  0  0  0
    3.8033   -1.8439    0.5276 H   0  0  0  0  0  0  0  0  0  0  0  0
    6.6951   -2.3152   -0.2051 H   0  0  0  0  0  0  0  0  0  0  0  0
    5.7259   -2.8477    1.1917 H   0  0  0  0  0  0  0  0  0  0  0  0
    7.7868    0.2918    0.5259 H   0  0  0  0  0  0  0  0  0  0  0  0
    6.5611    1.0468    1.5665 H   0  0  0  0  0  0  0  0  0  0  0  0
    6.4598    0.0112   -1.2849 H   0  0  0  0  0  0  0  0  0  0  0  0
    5.8554    1.6022   -0.5740 H   0  0  0  0  0  0  0  0  0  0  0  0
  1  2  2  0
  2  3  1  0
  3  4  2  0
  4  5  1  0
  5  6  1  0
  6  7  1  0
  7  8  1  0
  8  9  1  0
  9 10  1  0
 10 11  1  0
 11 12  2  0
 12 13  1  0
 13 14  1  0
 13 15  2  0
 15 16  1  0
 16 17  1  0
 16 18  2  0
  5 19  2  0
 19 20  1  0
 20 21  1  0
 21 22  1  0
 22 23  1  0
 23 24  1  0
 24 25  1  0
 25 26  1  0
 26 27  1  0
 21 28  2  0
 28 29  1  0
 29 30  2  0
 29 31  1  0
 31 32  2  0
  2 33  1  0
 33 34  1  0
 34 35  1  0
 35 36  1  0
 36 37  1  0
 37 38  1  0
 32  3  1  0
 38 33  1  0
 10  6  1  0
 18 11  1  0
 31 19  1  0
 27 22  1  0
  4 39  1  0
  6 40  1  6
  7 41  1  0
  7 42  1  0
  8 43  1  0
  8 44  1  0
  9 45  1  0
  9 46  1  0
 12 47  1  0
 15 48  1  0
 18 49  1  0
 23 50  1  0
 23 51  1  0
 24 52  1  0
 24 53  1  0
 26 54  1  0
 26 55  1  0
 27 56  1  0
 27 57  1  0
 28 58  1  0
 32 59  1  0
 34 60  1  0
 34 61  1  0
 35 62  1  0
 35 63  1  0
 37 64  1  0
 37 65  1  0
 38 66  1  0
 38 67  1  0
M  END
$$$$
