@<TRIPOS>MOLECULE
*****
 67 72 0 0 0
SMALL
GASTEIGER

@<TRIPOS>ATOM
      1 O           3.6197    1.9032   -0.7043 O.2     1  UNL1       -0.2700
      2 C           3.4683    0.6483   -0.4880 C.2     1  UNL1        0.2468
      3 C           2.1080    0.1774   -0.4015 C.ar    1  UNL1        0.0381
      4 C           1.1631    0.8470    0.3481 C.ar    1  UNL1       -0.0411
      5 C          -0.1582    0.3984    0.4397 C.ar    1  UNL1        0.0166
      6 C          -1.1698    1.1167    1.2364 C.3     1  UNL1        0.0522
      7 C          -1.1356    0.6108    2.6439 C.3     1  UNL1       -0.0287
      8 C          -1.5807    1.8333    3.4353 C.3     1  UNL1       -0.0352
      9 C          -0.8859    2.9504    2.6496 C.3     1  UNL1        0.0129
     10 N          -0.9728    2.5314    1.2740 N.pl3   1  UNL1       -0.3225
     11 C          -0.8773    3.3626    0.1352 C.ar    1  UNL1        0.0356
     12 C          -0.6416    4.7105    0.3001 C.ar    1  UNL1       -0.0052
     13 C          -0.5379    5.5808   -0.7710 C.ar    1  UNL1        0.1279
     14 F          -0.3066    6.8963   -0.5496 F       1  UNL1       -0.2053
     15 C          -0.6702    5.1159   -2.0602 C.ar    1  UNL1        0.0089
     16 C          -0.9072    3.7578   -2.2270 C.ar    1  UNL1        0.1279
     17 F          -1.0350    3.3186   -3.5100 F       1  UNL1       -0.2053
     18 C          -1.0077    2.9036   -1.1516 C.ar    1  UNL1       -0.0052
     19 C          -0.5359   -0.7432   -0.2334 C.ar    1  UNL1        0.1458
     20 O          -1.7449   -1.2310   -0.2023 O.2     1  UNL1       -0.4407
     21 C          -2.1521   -2.3222   -0.8311 C.ar    1  UNL1        0.1931
     22 N          -3.5145   -2.7351   -0.7011 N.pl3   1  UNL1       -0.2969
     23 C          -4.4415   -1.9865    0.1228 C.3     1  UNL1        0.0383
     24 C          -5.6271   -2.8735    0.4391 C.3     1  UNL1        0.0635
     25 O          -6.2741   -3.2864   -0.6904 O.3     1  UNL1       -0.3767
     26 C          -5.5001   -3.7206   -1.7285 C.3     1  UNL1        0.0635
     27 C          -4.0215   -3.8945   -1.3719 C.3     1  UNL1        0.0383
     28 C          -1.2412   -3.0077   -1.5809 C.ar    1  UNL1        0.0434
     29 C           0.0436   -2.5757   -1.6740 C.ar    1  UNL1        0.1944
     30 O           0.9418   -3.1490   -2.3430 O.2     1  UNL1       -0.2870
     31 C           0.4016   -1.4314   -0.9935 C.ar    1  UNL1        0.0651
     32 C           1.7185   -0.9572   -1.0665 C.ar    1  UNL1       -0.0352
     33 N           4.6172   -0.1309   -0.3580 N.am    1  UNL1       -0.2932
     34 C           4.6600   -1.5651   -0.1173 C.3     1  UNL1        0.0385
     35 C           5.9547   -1.9624    0.5610 C.3     1  UNL1        0.0635
     36 O           6.4758   -0.9887    1.3679 O.3     1  UNL1       -0.3767
     37 C           6.7043    0.2353    0.8102 C.3     1  UNL1        0.0635
     38 C           5.9176    0.5019   -0.4561 C.3     1  UNL1        0.0385
     39 H           1.3973    1.7316    0.8875 H       1  UNL1        0.0629
     40 H          -2.1873    0.8525    0.8306 H       1  UNL1        0.0551
     41 H          -0.0907    0.3479    2.9655 H       1  UNL1        0.0287
     42 H          -1.7689   -0.2662    2.8282 H       1  UNL1        0.0287
     43 H          -2.6703    1.9061    3.3455 H       1  UNL1        0.0281
     44 H          -1.2361    1.8042    4.4784 H       1  UNL1        0.0281
     45 H          -1.4873    3.8617    2.8525 H       1  UNL1        0.0464
     46 H           0.1403    3.0232    3.0088 H       1  UNL1        0.0464
     47 H          -0.5256    5.1437    1.3042 H       1  UNL1        0.0665
     48 H          -0.5893    5.7932   -2.8877 H       1  UNL1        0.0675
     49 H          -1.1911    1.8630   -1.3207 H       1  UNL1        0.0665
     50 H          -3.8888   -1.7957    1.0908 H       1  UNL1        0.0487
     51 H          -4.7057   -1.0018   -0.2610 H       1  UNL1        0.0487
     52 H          -6.3287   -2.2845    1.0643 H       1  UNL1        0.0575
     53 H          -5.2451   -3.7146    1.0672 H       1  UNL1        0.0575
     54 H          -5.5595   -2.9514   -2.5522 H       1  UNL1        0.0575
     55 H          -5.8879   -4.6558   -2.1972 H       1  UNL1        0.0575
     56 H          -4.0003   -4.7456   -0.6344 H       1  UNL1        0.0487
     57 H          -3.5027   -4.1606   -2.3088 H       1  UNL1        0.0487
     58 H          -1.5186   -3.9055   -2.1130 H       1  UNL1        0.0707
     59 H           2.4488   -1.4857   -1.6584 H       1  UNL1        0.0633
     60 H           4.6555   -2.1440   -1.0899 H       1  UNL1        0.0487
     61 H           3.8033   -1.8439    0.5276 H       1  UNL1        0.0487
     62 H           6.6951   -2.3152   -0.2051 H       1  UNL1        0.0575
     63 H           5.7259   -2.8477    1.1917 H       1  UNL1        0.0575
     64 H           7.7868    0.2918    0.5259 H       1  UNL1        0.0575
     65 H           6.5611    1.0468    1.5665 H       1  UNL1        0.0575
     66 H           6.4598    0.0112   -1.2849 H       1  UNL1        0.0487
     67 H           5.8554    1.6022   -0.5740 H       1  UNL1        0.0487
@<TRIPOS>BOND
     1     1     2    2
     2     2     3    1
     3     3     4   ar
     4     4     5   ar
     5     5     6    1
     6     6     7    1
     7     7     8    1
     8     8     9    1
     9     9    10    1
    10    10    11    1
    11    11    12   ar
    12    12    13   ar
    13    13    14    1
    14    13    15   ar
    15    15    16   ar
    16    16    17    1
    17    16    18   ar
    18     5    19   ar
    19    19    20   ar
    20    20    21   ar
    21    21    22    1
    22    22    23    1
    23    23    24    1
    24    24    25    1
    25    25    26    1
    26    26    27    1
    27    21    28   ar
    28    28    29   ar
    29    29    30    2
    30    29    31   ar
    31    31    32   ar
    32     2    33   am
    33    33    34    1
    34    34    35    1
    35    35    36    1
    36    36    37    1
    37    37    38    1
    38    32     3   ar
    39    38    33    1
    40    10     6    1
    41    18    11   ar
    42    31    19   ar
    43    27    22    1
    44     4    39    1
    45     6    40    1
    46     7    41    1
    47     7    42    1
    48     8    43    1
    49     8    44    1
    50     9    45    1
    51     9    46    1
    52    12    47    1
    53    15    48    1
    54    18    49    1
    55    23    50    1
    56    23    51    1
    57    24    52    1
    58    24    53    1
    59    26    54    1
    60    26    55    1
    61    27    56    1
    62    27    57    1
    63    28    58    1
    64    32    59    1
    65    34    60    1
    66    34    61    1
    67    35    62    1
    68    35    63    1
    69    37    64    1
    70    37    65    1
    71    38    66    1
    72    38    67    1
