
     RDKit          3D

 44 48  0  0  0  0  0  0  0  0999 V2000
    7.8909   -0.9492   -1.6362 N   0  0  0  0  0  0  0  0  0  0  0  0
    6.6218   -0.5590   -1.1159 C   0  0  0  0  0  0  0  0  0  0  0  0
    5.7760   -1.2941   -0.3807 N   0  0  0  0  0  0  0  0  0  0  0  0
    4.6644   -0.6078   -0.0650 C   0  0  0  0  0  0  0  0  0  0  0  0
    3.5287   -0.9618    0.6654 C   0  0  0  0  0  0  0  0  0  0  0  0
    2.5116   -0.0044    0.8164 C   0  0  0  0  0  0  0  0  0  0  0  0
    1.2781   -0.3812    1.5360 C   0  0  0  0  0  0  0  0  0  0  0  0
    1.2694   -1.2643    2.5589 C   0  0  0  0  0  0  0  0  0  0  0  0
    0.0950   -1.6607    3.2184 C   0  0  0  0  0  0  0  0  0  0  0  0
   -1.0910   -1.1142    2.7854 C   0  0  0  0  0  0  0  0  0  0  0  0
   -2.3651   -1.2925    3.2096 N   0  0  0  0  0  0  0  0  0  0  0  0
   -3.1560   -0.5284    2.4578 C   0  0  0  0  0  0  0  0  0  0  0  0
   -2.3611    0.1329    1.5533 C   0  0  0  0  0  0  0  0  0  0  0  0
   -2.7813    1.0869    0.5451 C   0  0  0  0  0  0  0  0  0  0  0  0
   -2.6189    2.3359    0.8644 O   0  0  0  0  0  0  0  0  0  0  0  0
   -3.3319    0.7843   -0.7011 N   0  0  0  0  0  0  0  0  0  0  0  0
   -3.7101    1.9055   -1.5948 C   0  0  0  0  0  0  0  0  0  0  0  0
   -4.7535    1.4027   -2.5468 C   0  0  0  0  0  0  0  0  0  0  0  0
   -5.6489    0.5084   -1.9857 O   0  0  0  0  0  0  0  0  0  0  0  0
   -5.0737   -0.6420   -1.4998 C   0  0  0  0  0  0  0  0  0  0  0  0
   -3.5791   -0.5268   -1.2562 C   0  0  0  0  0  0  0  0  0  0  0  0
   -1.0629   -0.2373    1.7619 N   0  0  0  0  0  0  0  0  0  0  0  0
    0.0593    0.1433    1.1341 C   0  0  0  0  0  0  0  0  0  0  0  0
    2.6860    1.2069    0.2544 C   0  0  0  0  0  0  0  0  0  0  0  0
    3.8290    1.5608   -0.4781 C   0  0  0  0  0  0  0  0  0  0  0  0
    4.8524    0.6253   -0.6469 C   0  0  0  0  0  0  0  0  0  0  0  0
    6.0081    0.6079   -1.2480 O   0  0  0  0  0  0  0  0  0  0  0  0
    8.4632   -1.5500   -0.9731 H   0  0  0  0  0  0  0  0  0  0  0  0
    8.2827   -0.7220   -2.5508 H   0  0  0  0  0  0  0  0  0  0  0  0
    3.4040   -1.9126    1.1131 H   0  0  0  0  0  0  0  0  0  0  0  0
    2.1804   -1.7118    2.9270 H   0  0  0  0  0  0  0  0  0  0  0  0
    0.1195   -2.3863    4.0357 H   0  0  0  0  0  0  0  0  0  0  0  0
   -4.2339   -0.4707    2.5817 H   0  0  0  0  0  0  0  0  0  0  0  0
   -2.8199    2.2675   -2.1479 H   0  0  0  0  0  0  0  0  0  0  0  0
   -4.1492    2.6970   -0.9449 H   0  0  0  0  0  0  0  0  0  0  0  0
   -4.2293    0.9552   -3.4389 H   0  0  0  0  0  0  0  0  0  0  0  0
   -5.3416    2.2671   -2.9615 H   0  0  0  0  0  0  0  0  0  0  0  0
   -5.1888   -1.4250   -2.3108 H   0  0  0  0  0  0  0  0  0  0  0  0
   -5.5656   -1.0680   -0.6015 H   0  0  0  0  0  0  0  0  0  0  0  0
   -3.0360   -0.6751   -2.2175 H   0  0  0  0  0  0  0  0  0  0  0  0
   -3.3194   -1.2804   -0.4878 H   0  0  0  0  0  0  0  0  0  0  0  0
    0.0356    0.8523    0.3226 H   0  0  0  0  0  0  0  0  0  0  0  0
    1.9050    1.9654    0.3750 H   0  0  0  0  0  0  0  0  0  0  0  0
    3.9561    2.5351   -0.9262 H   0  0  0  0  0  0  0  0  0  0  0  0
  1  2  1  0
  2  3  2  0
  3  4  1  0
  4  5  2  0
  5  6  1  0
  6  7  1  0
  7  8  1  0
  8  9  2  0
  9 10  1  0
 10 11  2  0
 11 12  1  0
 12 13  2  0
 13 14  1  0
 14 15  2  0
 14 16  1  0
 16 17  1  0
 17 18  1  0
 18 19  1  0
 19 20  1  0
 20 21  1  0
 13 22  1  0
 22 23  1  0
  6 24  2  0
 24 25  1  0
 25 26  2  0
 26 27  1  0
 27  2  1  0
 26  4  1  0
 23  7  2  0
 22 10  1  0
 21 16  1  0
  1 28  1  0
  1 29  1  0
  5 30  1  0
  8 31  1  0
  9 32  1  0
 12 33  1  0
 17 34  1  0
 17 35  1  0
 18 36  1  0
 18 37  1  0
 20 38  1  0
 20 39  1  0
 21 40  1  0
 21 41  1  0
 23 42  1  0
 24 43  1  0
 25 44  1  0
M  END
$$$$
