@<TRIPOS>MOLECULE
*****
 44 48 0 0 0
SMALL
GASTEIGER

@<TRIPOS>ATOM
      1 N           7.8909   -0.9492   -1.6362 N.pl3   1  UNL1       -0.3128
      2 C           6.6218   -0.5590   -1.1159 C.ar    1  UNL1        0.2858
      3 N           5.7760   -1.2941   -0.3807 N.ar    1  UNL1       -0.1956
      4 C           4.6644   -0.6078   -0.0650 C.ar    1  UNL1        0.1118
      5 C           3.5287   -0.9618    0.6654 C.ar    1  UNL1       -0.0248
      6 C           2.5116   -0.0044    0.8164 C.ar    1  UNL1       -0.0143
      7 C           1.2781   -0.3812    1.5360 C.ar    1  UNL1       -0.0012
      8 C           1.2694   -1.2643    2.5589 C.ar    1  UNL1       -0.0492
      9 C           0.0950   -1.6607    3.2184 C.ar    1  UNL1       -0.0182
     10 C          -1.0910   -1.1142    2.7854 C.ar    1  UNL1        0.1381
     11 N          -2.3651   -1.2925    3.2096 N.ar    1  UNL1       -0.2353
     12 C          -3.1560   -0.5284    2.4578 C.ar    1  UNL1        0.0589
     13 C          -2.3611    0.1329    1.5533 C.ar    1  UNL1        0.1284
     14 C          -2.7813    1.0869    0.5451 C.2     1  UNL1        0.2651
     15 O          -2.6189    2.3359    0.8644 O.2     1  UNL1       -0.2683
     16 N          -3.3319    0.7843   -0.7011 N.am    1  UNL1       -0.2919
     17 C          -3.7101    1.9055   -1.5948 C.3     1  UNL1        0.0385
     18 C          -4.7535    1.4027   -2.5468 C.3     1  UNL1        0.0635
     19 O          -5.6489    0.5084   -1.9857 O.3     1  UNL1       -0.3767
     20 C          -5.0737   -0.6420   -1.4998 C.3     1  UNL1        0.0635
     21 C          -3.5791   -0.5268   -1.2562 C.3     1  UNL1        0.0385
     22 N          -1.0629   -0.2373    1.7619 N.ar    1  UNL1       -0.2950
     23 C           0.0593    0.1433    1.1341 C.ar    1  UNL1        0.0196
     24 C           2.6860    1.2069    0.2544 C.ar    1  UNL1       -0.0504
     25 C           3.8290    1.5608   -0.4781 C.ar    1  UNL1       -0.0165
     26 C           4.8524    0.6253   -0.6469 C.ar    1  UNL1        0.1570
     27 O           6.0081    0.6079   -1.2480 O.2     1  UNL1       -0.4247
     28 H           8.4632   -1.5500   -0.9731 H       1  UNL1        0.1466
     29 H           8.2827   -0.7220   -2.5508 H       1  UNL1        0.1466
     30 H           3.4040   -1.9126    1.1131 H       1  UNL1        0.0646
     31 H           2.1804   -1.7118    2.9270 H       1  UNL1        0.0625
     32 H           0.1195   -2.3863    4.0357 H       1  UNL1        0.0654
     33 H          -4.2339   -0.4707    2.5817 H       1  UNL1        0.0853
     34 H          -2.8199    2.2675   -2.1479 H       1  UNL1        0.0487
     35 H          -4.1492    2.6970   -0.9449 H       1  UNL1        0.0487
     36 H          -4.2293    0.9552   -3.4389 H       1  UNL1        0.0575
     37 H          -5.3416    2.2671   -2.9615 H       1  UNL1        0.0575
     38 H          -5.1888   -1.4250   -2.3108 H       1  UNL1        0.0575
     39 H          -5.5656   -1.0680   -0.6015 H       1  UNL1        0.0575
     40 H          -3.0360   -0.6751   -2.2175 H       1  UNL1        0.0487
     41 H          -3.3194   -1.2804   -0.4878 H       1  UNL1        0.0487
     42 H           0.0356    0.8523    0.3226 H       1  UNL1        0.0819
     43 H           1.9050    1.9654    0.3750 H       1  UNL1        0.0625
     44 H           3.9561    2.5351   -0.9262 H       1  UNL1        0.0655
@<TRIPOS>BOND
     1     1     2    1
     2     2     3   ar
     3     3     4   ar
     4     4     5   ar
     5     5     6   ar
     6     6     7    1
     7     7     8   ar
     8     8     9   ar
     9     9    10   ar
    10    10    11   ar
    11    11    12   ar
    12    12    13   ar
    13    13    14    1
    14    14    15    2
    15    14    16   am
    16    16    17    1
    17    17    18    1
    18    18    19    1
    19    19    20    1
    20    20    21    1
    21    13    22   ar
    22    22    23   ar
    23     6    24   ar
    24    24    25   ar
    25    25    26   ar
    26    26    27   ar
    27    27     2   ar
    28    26     4   ar
    29    23     7   ar
    30    22    10   ar
    31    21    16    1
    32     1    28    1
    33     1    29    1
    34     5    30    1
    35     8    31    1
    36     9    32    1
    37    12    33    1
    38    17    34    1
    39    17    35    1
    40    18    36    1
    41    18    37    1
    42    20    38    1
    43    20    39    1
    44    21    40    1
    45    21    41    1
    46    23    42    1
    47    24    43    1
    48    25    44    1
