@<TRIPOS>MOLECULE
*****
 96 100 0 0 0
SMALL
GASTEIGER

@<TRIPOS>ATOM
      1 C          -9.0951    1.2245    1.9496 C.3     1  UNL1       -0.0437
      2 C          -7.8410    0.4395    1.6761 C.2     1  UNL1       -0.0739
      3 C          -7.7554   -0.8708    1.8314 C.2     1  UNL1       -0.0812
      4 C          -6.4865   -1.5448    2.2528 C.3     1  UNL1       -0.0122
      5 C          -6.0954   -2.6327    1.2182 C.3     1  UNL1       -0.0055
      6 C          -6.4617   -1.9964   -0.0774 C.ar    1  UNL1        0.0248
      7 N          -7.0365   -2.7467   -1.0247 N.ar    1  UNL1       -0.3259
      8 C          -7.4516   -2.2194   -2.2034 C.ar    1  UNL1        0.2489
      9 O          -7.9975   -2.9482   -3.0967 O.2     1  UNL1       -0.2679
     10 C          -7.2562   -0.8711   -2.3861 C.ar    1  UNL1        0.0031
     11 C          -6.6595   -0.0992   -1.4008 C.ar    1  UNL1       -0.0498
     12 C          -6.2387   -0.6397   -0.2078 C.ar    1  UNL1       -0.0039
     13 C          -5.6185    0.2289    0.8022 C.3     1  UNL1        0.0711
     14 C          -6.6734    1.2924    1.1924 C.3     1  UNL1       -0.0059
     15 C          -5.4234   -0.5131    2.1505 C.3     1  UNL1       -0.0083
     16 C          -4.0130   -0.9904    2.2881 C.3     1  UNL1       -0.0460
     17 C          -3.1726    0.2696    2.5593 C.3     1  UNL1       -0.0368
     18 C          -3.6641    1.4005    1.6718 C.3     1  UNL1        0.0156
     19 N          -4.3299    0.7506    0.5178 N.am    1  UNL1       -0.2900
     20 C          -3.6224    0.6972   -0.6978 C.2     1  UNL1        0.2303
     21 O          -4.0403    0.1653   -1.7394 O.2     1  UNL1       -0.2742
     22 C          -2.2603    1.3110   -0.7986 C.3     1  UNL1        0.0757
     23 N          -1.6507    1.1852   -2.0686 N.3     1  UNL1       -0.2971
     24 C          -2.2283    1.9051   -3.1487 C.3     1  UNL1       -0.0123
     25 C          -1.1724   -0.1158   -2.3281 C.3     1  UNL1       -0.0009
     26 C          -0.0024   -0.4787   -1.4670 C.3     1  UNL1       -0.0402
     27 C           1.1893    0.4813   -1.6469 C.3     1  UNL1       -0.0519
     28 C           1.6592    0.4856   -3.0498 C.3     1  UNL1       -0.0530
     29 C           2.7916    1.3419   -3.4258 C.3     1  UNL1       -0.0531
     30 C           4.1337    1.1033   -2.8857 C.3     1  UNL1       -0.0531
     31 C           4.4115    1.1381   -1.4423 C.3     1  UNL1       -0.0530
     32 C           5.9654    0.9239   -1.3281 C.3     1  UNL1       -0.0519
     33 C           6.2670    0.9385    0.1366 C.3     1  UNL1       -0.0402
     34 C           7.7161    0.7985    0.4307 C.3     1  UNL1       -0.0011
     35 N           8.3228   -0.3648   -0.0387 N.3     1  UNL1       -0.3011
     36 C           8.5610   -0.5564   -1.4139 C.3     1  UNL1       -0.0124
     37 C           8.3183   -1.5225    0.7852 C.3     1  UNL1        0.0252
     38 C           8.9487   -1.3061    2.1030 C.ar    1  UNL1       -0.0153
     39 C           8.1262   -0.9226    3.1647 C.ar    1  UNL1       -0.0545
     40 C           8.7287   -0.7150    4.3927 C.ar    1  UNL1       -0.0433
     41 C          10.0963   -0.8958    4.5027 C.ar    1  UNL1        0.0276
     42 N          10.8822   -1.2637    3.4827 N.ar    1  UNL1       -0.2629
     43 C          10.2928   -1.4646    2.2909 C.ar    1  UNL1        0.0320
     44 H          -9.9435    0.5707    2.1595 H       1  UNL1        0.0274
     45 H          -9.3480    1.8207    1.0390 H       1  UNL1        0.0274
     46 H          -8.8652    1.9628    2.7523 H       1  UNL1        0.0274
     47 H          -8.6678   -1.4342    1.6353 H       1  UNL1        0.0575
     48 H          -6.6451   -1.9742    3.2385 H       1  UNL1        0.0350
     49 H          -6.6632   -3.5389    1.4492 H       1  UNL1        0.0333
     50 H          -5.0354   -2.8436    1.3336 H       1  UNL1        0.0333
     51 H          -7.1980   -3.7879   -0.9038 H       1  UNL1        0.1686
     52 H          -7.5852   -0.4396   -3.3225 H       1  UNL1        0.0672
     53 H          -6.5642    0.9750   -1.6346 H       1  UNL1        0.0623
     54 H          -6.9582    1.7957    0.2506 H       1  UNL1        0.0334
     55 H          -6.3286    1.9377    1.9981 H       1  UNL1        0.0334
     56 H          -5.5818    0.2275    2.9613 H       1  UNL1        0.0331
     57 H          -3.5741   -1.4236    1.3764 H       1  UNL1        0.0269
     58 H          -3.9622   -1.6967    3.1231 H       1  UNL1        0.0269
     59 H          -3.2632    0.6102    3.6020 H       1  UNL1        0.0280
     60 H          -2.1188    0.0685    2.2996 H       1  UNL1        0.0280
     61 H          -2.8450    2.0364    1.3392 H       1  UNL1        0.0465
     62 H          -4.3958    2.0409    2.1719 H       1  UNL1        0.0465
     63 H          -1.5681    0.9482   -0.0164 H       1  UNL1        0.0522
     64 H          -2.3302    2.4231   -0.5876 H       1  UNL1        0.0522
     65 H          -1.8118    2.9324   -3.1486 H       1  UNL1        0.0391
     66 H          -1.9067    1.4481   -4.1078 H       1  UNL1        0.0391
     67 H          -3.3346    1.8955   -3.1573 H       1  UNL1        0.0391
     68 H          -2.0034   -0.8380   -2.1041 H       1  UNL1        0.0427
     69 H          -0.9150   -0.2444   -3.4028 H       1  UNL1        0.0427
     70 H           0.3965   -1.4968   -1.7228 H       1  UNL1        0.0278
     71 H          -0.2366   -0.4935   -0.3950 H       1  UNL1        0.0278
     72 H           1.9067    0.1478   -0.8928 H       1  UNL1        0.0266
     73 H           0.8383    1.5139   -1.3424 H       1  UNL1        0.0266
     74 H           0.7954    0.7367   -3.7334 H       1  UNL1        0.0265
     75 H           1.9026   -0.5939   -3.3213 H       1  UNL1        0.0265
     76 H           2.5104    2.4546   -3.2950 H       1  UNL1        0.0265
     77 H           2.9193    1.3195   -4.5734 H       1  UNL1        0.0265
     78 H           4.8456    1.8232   -3.4006 H       1  UNL1        0.0265
     79 H           4.4543    0.0650   -3.2444 H       1  UNL1        0.0265
     80 H           4.1428    2.0656   -0.9142 H       1  UNL1        0.0265
     81 H           4.0493    0.2286   -0.8925 H       1  UNL1        0.0265
     82 H           6.0842   -0.1047   -1.7097 H       1  UNL1        0.0266
     83 H           6.4443    1.7102   -1.9036 H       1  UNL1        0.0266
     84 H           5.8561    1.9121    0.5607 H       1  UNL1        0.0278
     85 H           5.6735    0.0976    0.5957 H       1  UNL1        0.0278
     86 H           8.2017    1.7311   -0.0357 H       1  UNL1        0.0426
     87 H           7.8273    0.9355    1.5535 H       1  UNL1        0.0426
     88 H           8.3438    0.3071   -2.0535 H       1  UNL1        0.0391
     89 H           9.6443   -0.8873   -1.5834 H       1  UNL1        0.0391
     90 H           7.9710   -1.4307   -1.7862 H       1  UNL1        0.0391
     91 H           8.8145   -2.3522    0.2215 H       1  UNL1        0.0476
     92 H           7.2603   -1.8654    0.9351 H       1  UNL1        0.0476
     93 H           7.0646   -0.7904    3.0493 H       1  UNL1        0.0622
     94 H           8.1354   -0.4210    5.2353 H       1  UNL1        0.0633
     95 H          10.5159   -0.7196    5.4887 H       1  UNL1        0.0829
     96 H          10.8878   -1.7675    1.4201 H       1  UNL1        0.0833
@<TRIPOS>BOND
     1     1     2    1
     2     2     3    2
     3     3     4    1
     4     4     5    1
     5     5     6    1
     6     6     7   ar
     7     7     8   ar
     8     8     9    2
     9     8    10   ar
    10    10    11   ar
    11    11    12   ar
    12    12    13    1
    13    13    14    1
    14    13    15    1
    15    15    16    1
    16    16    17    1
    17    17    18    1
    18    18    19    1
    19    19    20   am
    20    20    21    2
    21    20    22    1
    22    22    23    1
    23    23    24    1
    24    23    25    1
    25    25    26    1
    26    26    27    1
    27    27    28    1
    28    28    29    1
    29    29    30    1
    30    30    31    1
    31    31    32    1
    32    32    33    1
    33    33    34    1
    34    34    35    1
    35    35    36    1
    36    35    37    1
    37    37    38    1
    38    38    39   ar
    39    39    40   ar
    40    40    41   ar
    41    41    42   ar
    42    42    43   ar
    43    14     2    1
    44    43    38   ar
    45    15     4    1
    46    12     6   ar
    47    13    19    1
    48     1    44    1
    49     1    45    1
    50     1    46    1
    51     3    47    1
    52     4    48    1
    53     5    49    1
    54     5    50    1
    55     7    51    1
    56    10    52    1
    57    11    53    1
    58    14    54    1
    59    14    55    1
    60    15    56    1
    61    16    57    1
    62    16    58    1
    63    17    59    1
    64    17    60    1
    65    18    61    1
    66    18    62    1
    67    22    63    1
    68    22    64    1
    69    24    65    1
    70    24    66    1
    71    24    67    1
    72    25    68    1
    73    25    69    1
    74    26    70    1
    75    26    71    1
    76    27    72    1
    77    27    73    1
    78    28    74    1
    79    28    75    1
    80    29    76    1
    81    29    77    1
    82    30    78    1
    83    30    79    1
    84    31    80    1
    85    31    81    1
    86    32    82    1
    87    32    83    1
    88    33    84    1
    89    33    85    1
    90    34    86    1
    91    34    87    1
    92    36    88    1
    93    36    89    1
    94    36    90    1
    95    37    91    1
    96    37    92    1
    97    39    93    1
    98    40    94    1
    99    41    95    1
   100    43    96    1
