
     RDKit          3D

 96100  0  0  0  0  0  0  0  0999 V2000
   -9.0951    1.2245    1.9496 C   0  0  0  0  0  0  0  0  0  0  0  0
   -7.8410    0.4395    1.6761 C   0  0  0  0  0  0  0  0  0  0  0  0
   -7.7554   -0.8708    1.8314 C   0  0  0  0  0  0  0  0  0  0  0  0
   -6.4865   -1.5448    2.2528 C   0  0  1  0  0  0  0  0  0  0  0  0
   -6.0954   -2.6327    1.2182 C   0  0  0  0  0  0  0  0  0  0  0  0
   -6.4617   -1.9964   -0.0774 C   0  0  0  0  0  0  0  0  0  0  0  0
   -7.0365   -2.7467   -1.0247 N   0  0  0  0  0  0  0  0  0  0  0  0
   -7.4516   -2.2194   -2.2034 C   0  0  0  0  0  0  0  0  0  0  0  0
   -7.9975   -2.9482   -3.0967 O   0  0  0  0  0  0  0  0  0  0  0  0
   -7.2562   -0.8711   -2.3861 C   0  0  0  0  0  0  0  0  0  0  0  0
   -6.6595   -0.0992   -1.4008 C   0  0  0  0  0  0  0  0  0  0  0  0
   -6.2387   -0.6397   -0.2078 C   0  0  0  0  0  0  0  0  0  0  0  0
   -5.6185    0.2289    0.8022 C   0  0  1  0  0  0  0  0  0  0  0  0
   -6.6734    1.2924    1.1924 C   0  0  0  0  0  0  0  0  0  0  0  0
   -5.4234   -0.5131    2.1505 C   0  0  2  0  0  0  0  0  0  0  0  0
   -4.0130   -0.9904    2.2881 C   0  0  0  0  0  0  0  0  0  0  0  0
   -3.1726    0.2696    2.5593 C   0  0  0  0  0  0  0  0  0  0  0  0
   -3.6641    1.4005    1.6718 C   0  0  0  0  0  0  0  0  0  0  0  0
   -4.3299    0.7506    0.5178 N   0  0  0  0  0  0  0  0  0  0  0  0
   -3.6224    0.6972   -0.6978 C   0  0  0  0  0  0  0  0  0  0  0  0
   -4.0403    0.1653   -1.7394 O   0  0  0  0  0  0  0  0  0  0  0  0
   -2.2603    1.3110   -0.7986 C   0  0  0  0  0  0  0  0  0  0  0  0
   -1.6507    1.1852   -2.0686 N   0  0  0  0  0  0  0  0  0  0  0  0
   -2.2283    1.9051   -3.1487 C   0  0  0  0  0  0  0  0  0  0  0  0
   -1.1724   -0.1158   -2.3281 C   0  0  0  0  0  0  0  0  0  0  0  0
   -0.0024   -0.4787   -1.4670 C   0  0  0  0  0  0  0  0  0  0  0  0
    1.1893    0.4813   -1.6469 C   0  0  0  0  0  0  0  0  0  0  0  0
    1.6592    0.4856   -3.0498 C   0  0  0  0  0  0  0  0  0  0  0  0
    2.7916    1.3419   -3.4258 C   0  0  0  0  0  0  0  0  0  0  0  0
    4.1337    1.1033   -2.8857 C   0  0  0  0  0  0  0  0  0  0  0  0
    4.4115    1.1381   -1.4423 C   0  0  0  0  0  0  0  0  0  0  0  0
    5.9654    0.9239   -1.3281 C   0  0  0  0  0  0  0  0  0  0  0  0
    6.2670    0.9385    0.1366 C   0  0  0  0  0  0  0  0  0  0  0  0
    7.7161    0.7985    0.4307 C   0  0  0  0  0  0  0  0  0  0  0  0
    8.3228   -0.3648   -0.0387 N   0  0  0  0  0  0  0  0  0  0  0  0
    8.5610   -0.5564   -1.4139 C   0  0  0  0  0  0  0  0  0  0  0  0
    8.3183   -1.5225    0.7852 C   0  0  0  0  0  0  0  0  0  0  0  0
    8.9487   -1.3061    2.1030 C   0  0  0  0  0  0  0  0  0  0  0  0
    8.1262   -0.9226    3.1647 C   0  0  0  0  0  0  0  0  0  0  0  0
    8.7287   -0.7150    4.3927 C   0  0  0  0  0  0  0  0  0  0  0  0
   10.0963   -0.8958    4.5027 C   0  0  0  0  0  0  0  0  0  0  0  0
   10.8822   -1.2637    3.4827 N   0  0  0  0  0  0  0  0  0  0  0  0
   10.2928   -1.4646    2.2909 C   0  0  0  0  0  0  0  0  0  0  0  0
   -9.9435    0.5707    2.1595 H   0  0  0  0  0  0  0  0  0  0  0  0
   -9.3480    1.8207    1.0390 H   0  0  0  0  0  0  0  0  0  0  0  0
   -8.8652    1.9628    2.7523 H   0  0  0  0  0  0  0  0  0  0  0  0
   -8.6678   -1.4342    1.6353 H   0  0  0  0  0  0  0  0  0  0  0  0
   -6.6451   -1.9742    3.2385 H   0  0  0  0  0  0  0  0  0  0  0  0
   -6.6632   -3.5389    1.4492 H   0  0  0  0  0  0  0  0  0  0  0  0
   -5.0354   -2.8436    1.3336 H   0  0  0  0  0  0  0  0  0  0  0  0
   -7.1980   -3.7879   -0.9038 H   0  0  0  0  0  0  0  0  0  0  0  0
   -7.5852   -0.4396   -3.3225 H   0  0  0  0  0  0  0  0  0  0  0  0
   -6.5642    0.9750   -1.6346 H   0  0  0  0  0  0  0  0  0  0  0  0
   -6.9582    1.7957    0.2506 H   0  0  0  0  0  0  0  0  0  0  0  0
   -6.3286    1.9377    1.9981 H   0  0  0  0  0  0  0  0  0  0  0  0
   -5.5818    0.2275    2.9613 H   0  0  0  0  0  0  0  0  0  0  0  0
   -3.5741   -1.4236    1.3764 H   0  0  0  0  0  0  0  0  0  0  0  0
   -3.9622   -1.6967    3.1231 H   0  0  0  0  0  0  0  0  0  0  0  0
   -3.2632    0.6102    3.6020 H   0  0  0  0  0  0  0  0  0  0  0  0
   -2.1188    0.0685    2.2996 H   0  0  0  0  0  0  0  0  0  0  0  0
   -2.8450    2.0364    1.3392 H   0  0  0  0  0  0  0  0  0  0  0  0
   -4.3958    2.0409    2.1719 H   0  0  0  0  0  0  0  0  0  0  0  0
   -1.5681    0.9482   -0.0164 H   0  0  0  0  0  0  0  0  0  0  0  0
   -2.3302    2.4231   -0.5876 H   0  0  0  0  0  0  0  0  0  0  0  0
   -1.8118    2.9324   -3.1486 H   0  0  0  0  0  0  0  0  0  0  0  0
   -1.9067    1.4481   -4.1078 H   0  0  0  0  0  0  0  0  0  0  0  0
   -3.3346    1.8955   -3.1573 H   0  0  0  0  0  0  0  0  0  0  0  0
   -2.0034   -0.8380   -2.1041 H   0  0  0  0  0  0  0  0  0  0  0  0
   -0.9150   -0.2444   -3.4028 H   0  0  0  0  0  0  0  0  0  0  0  0
    0.3965   -1.4968   -1.7228 H   0  0  0  0  0  0  0  0  0  0  0  0
   -0.2366   -0.4935   -0.3950 H   0  0  0  0  0  0  0  0  0  0  0  0
    1.9067    0.1478   -0.8928 H   0  0  0  0  0  0  0  0  0  0  0  0
    0.8383    1.5139   -1.3424 H   0  0  0  0  0  0  0  0  0  0  0  0
    0.7954    0.7367   -3.7334 H   0  0  0  0  0  0  0  0  0  0  0  0
    1.9026   -0.5939   -3.3213 H   0  0  0  0  0  0  0  0  0  0  0  0
    2.5104    2.4546   -3.2950 H   0  0  0  0  0  0  0  0  0  0  0  0
    2.9193    1.3195   -4.5734 H   0  0  0  0  0  0  0  0  0  0  0  0
    4.8456    1.8232   -3.4006 H   0  0  0  0  0  0  0  0  0  0  0  0
    4.4543    0.0650   -3.2444 H   0  0  0  0  0  0  0  0  0  0  0  0
    4.1428    2.0656   -0.9142 H   0  0  0  0  0  0  0  0  0  0  0  0
    4.0493    0.2286   -0.8925 H   0  0  0  0  0  0  0  0  0  0  0  0
    6.0842   -0.1047   -1.7097 H   0  0  0  0  0  0  0  0  0  0  0  0
    6.4443    1.7102   -1.9036 H   0  0  0  0  0  0  0  0  0  0  0  0
    5.8561    1.9121    0.5607 H   0  0  0  0  0  0  0  0  0  0  0  0
    5.6735    0.0976    0.5957 H   0  0  0  0  0  0  0  0  0  0  0  0
    8.2017    1.7311   -0.0357 H   0  0  0  0  0  0  0  0  0  0  0  0
    7.8273    0.9355    1.5535 H   0  0  0  0  0  0  0  0  0  0  0  0
    8.3438    0.3071   -2.0535 H   0  0  0  0  0  0  0  0  0  0  0  0
    9.6443   -0.8873   -1.5834 H   0  0  0  0  0  0  0  0  0  0  0  0
    7.9710   -1.4307   -1.7862 H   0  0  0  0  0  0  0  0  0  0  0  0
    8.8145   -2.3522    0.2215 H   0  0  0  0  0  0  0  0  0  0  0  0
    7.2603   -1.8654    0.9351 H   0  0  0  0  0  0  0  0  0  0  0  0
    7.0646   -0.7904    3.0493 H   0  0  0  0  0  0  0  0  0  0  0  0
    8.1354   -0.4210    5.2353 H   0  0  0  0  0  0  0  0  0  0  0  0
   10.5159   -0.7196    5.4887 H   0  0  0  0  0  0  0  0  0  0  0  0
   10.8878   -1.7675    1.4201 H   0  0  0  0  0  0  0  0  0  0  0  0
  1  2  1  0
  2  3  2  0
  3  4  1  0
  4  5  1  0
  5  6  1  0
  6  7  1  0
  7  8  1  0
  8  9  2  0
  8 10  1  0
 10 11  2  0
 11 12  1  0
 12 13  1  0
 13 14  1  0
 13 15  1  0
 15 16  1  0
 16 17  1  0
 17 18  1  0
 18 19  1  0
 19 20  1  0
 20 21  2  0
 20 22  1  0
 22 23  1  0
 23 24  1  0
 23 25  1  0
 25 26  1  0
 26 27  1  0
 27 28  1  0
 28 29  1  0
 29 30  1  0
 30 31  1  0
 31 32  1  0
 32 33  1  0
 33 34  1  0
 34 35  1  0
 35 36  1  0
 35 37  1  0
 37 38  1  0
 38 39  2  0
 39 40  1  0
 40 41  2  0
 41 42  1  0
 42 43  2  0
 14  2  1  0
 43 38  1  0
 15  4  1  0
 12  6  2  0
 13 19  1  6
  1 44  1  0
  1 45  1  0
  1 46  1  0
  3 47  1  0
  4 48  1  1
  5 49  1  0
  5 50  1  0
  7 51  1  0
 10 52  1  0
 11 53  1  0
 14 54  1  0
 14 55  1  0
 15 56  1  1
 16 57  1  0
 16 58  1  0
 17 59  1  0
 17 60  1  0
 18 61  1  0
 18 62  1  0
 22 63  1  0
 22 64  1  0
 24 65  1  0
 24 66  1  0
 24 67  1  0
 25 68  1  0
 25 69  1  0
 26 70  1  0
 26 71  1  0
 27 72  1  0
 27 73  1  0
 28 74  1  0
 28 75  1  0
 29 76  1  0
 29 77  1  0
 30 78  1  0
 30 79  1  0
 31 80  1  0
 31 81  1  0
 32 82  1  0
 32 83  1  0
 33 84  1  0
 33 85  1  0
 34 86  1  0
 34 87  1  0
 36 88  1  0
 36 89  1  0
 36 90  1  0
 37 91  1  0
 37 92  1  0
 39 93  1  0
 40 94  1  0
 41 95  1  0
 43 96  1  0
M  END
$$$$
