@<TRIPOS>MOLECULE
*****
 65 68 0 0 0
SMALL
GASTEIGER

@<TRIPOS>ATOM
      1 C          -5.6614   -3.0683    0.3270 C.3     1  UNL1       -0.0552
      2 C          -4.2358   -2.8076    0.7357 C.3     1  UNL1        0.0421
      3 C          -3.8163   -1.4390    0.3099 C.2     1  UNL1        0.3078
      4 O          -4.6379   -0.7196   -0.2904 O.2     1  UNL1       -0.2508
      5 O          -2.5408   -0.9674    0.5717 O.3     1  UNL1       -0.4486
      6 C          -2.0950    0.3288    0.1810 C.3     1  UNL1        0.1890
      7 C          -2.9980    1.3566    0.8112 C.2     1  UNL1        0.2359
      8 O          -3.8541    0.9765    1.6265 O.2     1  UNL1       -0.2808
      9 S          -2.9113    3.0920    0.4486 S.3     1  UNL1       -0.0505
     10 C          -4.1329    4.0372    1.3814 C.3     1  UNL1        0.1429
     11 F          -3.8732    4.0120    2.7408 F       1  UNL1       -0.2370
     12 C          -2.1777    0.5665   -1.3067 C.3     1  UNL1        0.0049
     13 C          -2.2705   -0.7385   -2.0733 C.3     1  UNL1       -0.0583
     14 C          -0.7983    1.2229   -1.6412 C.3     1  UNL1       -0.0425
     15 C           0.0333    0.3976   -0.7625 C.3     1  UNL1       -0.0251
     16 C           1.4755    0.7306   -0.5773 C.3     1  UNL1        0.0030
     17 C           2.1517    1.1292   -1.8461 C.3     1  UNL1       -0.0117
     18 C           3.6147    1.4289   -1.5347 C.3     1  UNL1        0.1237
     19 F           4.3051    1.8552   -2.6216 F       1  UNL1       -0.2407
     20 C           4.1230    0.0709   -1.0768 C.2     1  UNL1       -0.0198
     21 C           5.0498   -0.5307   -1.7631 C.2     1  UNL1       -0.0121
     22 C           5.5953   -1.8379   -1.4045 C.2     1  UNL1        0.1788
     23 O           6.4809   -2.4218   -2.0508 O.2     1  UNL1       -0.2879
     24 C           5.0439   -2.4614   -0.2139 C.2     1  UNL1       -0.0179
     25 C           4.1092   -1.8133    0.4498 C.2     1  UNL1       -0.0674
     26 C           3.5394   -0.5062    0.1370 C.3     1  UNL1        0.0469
     27 C           4.0387    0.4140    1.2783 C.3     1  UNL1       -0.0492
     28 C           2.0453   -0.5234    0.0865 C.3     1  UNL1        0.1528
     29 F           1.6522   -1.5962   -0.6922 F       1  UNL1       -0.2377
     30 C           1.3815   -0.6594    1.4239 C.3     1  UNL1        0.0910
     31 O           1.8709    0.1808    2.4025 O.3     1  UNL1       -0.3886
     32 C          -0.1155   -0.6211    1.4019 C.3     1  UNL1       -0.0140
     33 C          -0.6587    0.5229    0.5733 C.3     1  UNL1        0.0216
     34 C          -0.4741    1.8469    1.2184 C.3     1  UNL1       -0.0551
     35 H          -6.1573   -2.1336   -0.0632 H       1  UNL1        0.0235
     36 H          -6.2862   -3.4565    1.1502 H       1  UNL1        0.0235
     37 H          -5.7443   -3.8011   -0.5009 H       1  UNL1        0.0235
     38 H          -4.1079   -2.8811    1.8216 H       1  UNL1        0.0375
     39 H          -3.5902   -3.5884    0.2454 H       1  UNL1        0.0375
     40 H          -4.1561    5.0951    1.0511 H       1  UNL1        0.0736
     41 H          -5.1478    3.6209    1.1540 H       1  UNL1        0.0736
     42 H          -2.9803    1.2239   -1.6294 H       1  UNL1        0.0342
     43 H          -1.4186   -0.7714   -2.8207 H       1  UNL1        0.0234
     44 H          -3.2319   -0.7831   -2.6170 H       1  UNL1        0.0234
     45 H          -2.1367   -1.6346   -1.4414 H       1  UNL1        0.0234
     46 H          -0.6016    0.9734   -2.7034 H       1  UNL1        0.0272
     47 H          -0.8281    2.2928   -1.4588 H       1  UNL1        0.0272
     48 H          -0.0686   -0.6657   -1.0727 H       1  UNL1        0.0311
     49 H           1.6362    1.5499    0.1531 H       1  UNL1        0.0336
     50 H           1.6253    1.9963   -2.2454 H       1  UNL1        0.0300
     51 H           2.1762    0.2713   -2.5633 H       1  UNL1        0.0300
     52 H           3.6574    2.1183   -0.6688 H       1  UNL1        0.0699
     53 H           5.4774   -0.0729   -2.6680 H       1  UNL1        0.0656
     54 H           5.3832   -3.4262    0.1243 H       1  UNL1        0.0653
     55 H           3.7219   -2.3510    1.3588 H       1  UNL1        0.0583
     56 H           4.1403   -0.1207    2.2247 H       1  UNL1        0.0242
     57 H           3.5224    1.3691    1.2900 H       1  UNL1        0.0242
     58 H           5.1039    0.6554    0.9794 H       1  UNL1        0.0242
     59 H           1.6379   -1.7058    1.7805 H       1  UNL1        0.0626
     60 H           1.2976    0.1476    3.1838 H       1  UNL1        0.2099
     61 H          -0.4817   -0.5081    2.4266 H       1  UNL1        0.0298
     62 H          -0.4933   -1.5659    0.9770 H       1  UNL1        0.0298
     63 H           0.4908    1.9285    1.7857 H       1  UNL1        0.0237
     64 H          -0.4513    2.7003    0.5157 H       1  UNL1        0.0237
     65 H          -1.2476    2.0658    1.9806 H       1  UNL1        0.0237
@<TRIPOS>BOND
     1     1     2    1
     2     2     3    1
     3     3     4    2
     4     3     5    1
     5     6     5    1
     6     6     7    1
     7     7     8    2
     8     7     9    1
     9     9    10    1
    10    10    11    1
    11     6    12    1
    12    12    13    1
    13    12    14    1
    14    14    15    1
    15    15    16    1
    16    16    17    1
    17    17    18    1
    18    18    19    1
    19    18    20    1
    20    20    21    2
    21    21    22    1
    22    22    23    2
    23    22    24    1
    24    24    25    2
    25    25    26    1
    26    26    27    1
    27    26    28    1
    28    28    29    1
    29    28    30    1
    30    30    31    1
    31    30    32    1
    32    32    33    1
    33    33    34    1
    34    33     6    1
    35    33    15    1
    36    28    16    1
    37    26    20    1
    38     1    35    1
    39     1    36    1
    40     1    37    1
    41     2    38    1
    42     2    39    1
    43    10    40    1
    44    10    41    1
    45    12    42    1
    46    13    43    1
    47    13    44    1
    48    13    45    1
    49    14    46    1
    50    14    47    1
    51    15    48    1
    52    16    49    1
    53    17    50    1
    54    17    51    1
    55    18    52    1
    56    21    53    1
    57    24    54    1
    58    25    55    1
    59    27    56    1
    60    27    57    1
    61    27    58    1
    62    30    59    1
    63    31    60    1
    64    32    61    1
    65    32    62    1
    66    34    63    1
    67    34    64    1
    68    34    65    1
