
     RDKit          3D

 65 68  0  0  0  0  0  0  0  0999 V2000
   -5.6614   -3.0683    0.3270 C   0  0  0  0  0  0  0  0  0  0  0  0
   -4.2358   -2.8076    0.7357 C   0  0  0  0  0  0  0  0  0  0  0  0
   -3.8163   -1.4390    0.3099 C   0  0  0  0  0  0  0  0  0  0  0  0
   -4.6379   -0.7196   -0.2904 O   0  0  0  0  0  0  0  0  0  0  0  0
   -2.5408   -0.9674    0.5717 O   0  0  0  0  0  0  0  0  0  0  0  0
   -2.0950    0.3288    0.1810 C   0  0  2  0  0  0  0  0  0  0  0  0
   -2.9980    1.3566    0.8112 C   0  0  0  0  0  0  0  0  0  0  0  0
   -3.8541    0.9765    1.6265 O   0  0  0  0  0  0  0  0  0  0  0  0
   -2.9113    3.0920    0.4486 S   0  0  0  0  0  0  0  0  0  0  0  0
   -4.1329    4.0372    1.3814 C   0  0  0  0  0  0  0  0  0  0  0  0
   -3.8732    4.0120    2.7408 F   0  0  0  0  0  0  0  0  0  0  0  0
   -2.1777    0.5665   -1.3067 C   0  0  2  0  0  0  0  0  0  0  0  0
   -2.2705   -0.7385   -2.0733 C   0  0  0  0  0  0  0  0  0  0  0  0
   -0.7983    1.2229   -1.6412 C   0  0  0  0  0  0  0  0  0  0  0  0
    0.0333    0.3976   -0.7625 C   0  0  1  0  0  0  0  0  0  0  0  0
    1.4755    0.7306   -0.5773 C   0  0  2  0  0  0  0  0  0  0  0  0
    2.1517    1.1292   -1.8461 C   0  0  0  0  0  0  0  0  0  0  0  0
    3.6147    1.4289   -1.5347 C   0  0  2  0  0  0  0  0  0  0  0  0
    4.3051    1.8552   -2.6216 F   0  0  0  0  0  0  0  0  0  0  0  0
    4.1230    0.0709   -1.0768 C   0  0  0  0  0  0  0  0  0  0  0  0
    5.0498   -0.5307   -1.7631 C   0  0  0  0  0  0  0  0  0  0  0  0
    5.5953   -1.8379   -1.4045 C   0  0  0  0  0  0  0  0  0  0  0  0
    6.4809   -2.4218   -2.0508 O   0  0  0  0  0  0  0  0  0  0  0  0
    5.0439   -2.4614   -0.2139 C   0  0  0  0  0  0  0  0  0  0  0  0
    4.1092   -1.8133    0.4498 C   0  0  0  0  0  0  0  0  0  0  0  0
    3.5394   -0.5062    0.1370 C   0  0  1  0  0  0  0  0  0  0  0  0
    4.0387    0.4140    1.2783 C   0  0  0  0  0  0  0  0  0  0  0  0
    2.0453   -0.5234    0.0865 C   0  0  2  0  0  0  0  0  0  0  0  0
    1.6522   -1.5962   -0.6922 F   0  0  0  0  0  0  0  0  0  0  0  0
    1.3815   -0.6594    1.4239 C   0  0  1  0  0  0  0  0  0  0  0  0
    1.8709    0.1808    2.4025 O   0  0  0  0  0  0  0  0  0  0  0  0
   -0.1155   -0.6211    1.4019 C   0  0  0  0  0  0  0  0  0  0  0  0
   -0.6587    0.5229    0.5733 C   0  0  2  0  0  0  0  0  0  0  0  0
   -0.4741    1.8469    1.2184 C   0  0  0  0  0  0  0  0  0  0  0  0
   -6.1573   -2.1336   -0.0632 H   0  0  0  0  0  0  0  0  0  0  0  0
   -6.2862   -3.4565    1.1502 H   0  0  0  0  0  0  0  0  0  0  0  0
   -5.7443   -3.8011   -0.5009 H   0  0  0  0  0  0  0  0  0  0  0  0
   -4.1079   -2.8811    1.8216 H   0  0  0  0  0  0  0  0  0  0  0  0
   -3.5902   -3.5884    0.2454 H   0  0  0  0  0  0  0  0  0  0  0  0
   -4.1561    5.0951    1.0511 H   0  0  0  0  0  0  0  0  0  0  0  0
   -5.1478    3.6209    1.1540 H   0  0  0  0  0  0  0  0  0  0  0  0
   -2.9803    1.2239   -1.6294 H   0  0  0  0  0  0  0  0  0  0  0  0
   -1.4186   -0.7714   -2.8207 H   0  0  0  0  0  0  0  0  0  0  0  0
   -3.2319   -0.7831   -2.6170 H   0  0  0  0  0  0  0  0  0  0  0  0
   -2.1367   -1.6346   -1.4414 H   0  0  0  0  0  0  0  0  0  0  0  0
   -0.6016    0.9734   -2.7034 H   0  0  0  0  0  0  0  0  0  0  0  0
   -0.8281    2.2928   -1.4588 H   0  0  0  0  0  0  0  0  0  0  0  0
   -0.0686   -0.6657   -1.0727 H   0  0  0  0  0  0  0  0  0  0  0  0
    1.6362    1.5499    0.1531 H   0  0  0  0  0  0  0  0  0  0  0  0
    1.6253    1.9963   -2.2454 H   0  0  0  0  0  0  0  0  0  0  0  0
    2.1762    0.2713   -2.5633 H   0  0  0  0  0  0  0  0  0  0  0  0
    3.6574    2.1183   -0.6688 H   0  0  0  0  0  0  0  0  0  0  0  0
    5.4774   -0.0729   -2.6680 H   0  0  0  0  0  0  0  0  0  0  0  0
    5.3832   -3.4262    0.1243 H   0  0  0  0  0  0  0  0  0  0  0  0
    3.7219   -2.3510    1.3588 H   0  0  0  0  0  0  0  0  0  0  0  0
    4.1403   -0.1207    2.2247 H   0  0  0  0  0  0  0  0  0  0  0  0
    3.5224    1.3691    1.2900 H   0  0  0  0  0  0  0  0  0  0  0  0
    5.1039    0.6554    0.9794 H   0  0  0  0  0  0  0  0  0  0  0  0
    1.6379   -1.7058    1.7805 H   0  0  0  0  0  0  0  0  0  0  0  0
    1.2976    0.1476    3.1838 H   0  0  0  0  0  0  0  0  0  0  0  0
   -0.4817   -0.5081    2.4266 H   0  0  0  0  0  0  0  0  0  0  0  0
   -0.4933   -1.5659    0.9770 H   0  0  0  0  0  0  0  0  0  0  0  0
    0.4908    1.9285    1.7857 H   0  0  0  0  0  0  0  0  0  0  0  0
   -0.4513    2.7003    0.5157 H   0  0  0  0  0  0  0  0  0  0  0  0
   -1.2476    2.0658    1.9806 H   0  0  0  0  0  0  0  0  0  0  0  0
  1  2  1  0
  2  3  1  0
  3  4  2  0
  3  5  1  0
  6  5  1  6
  6  7  1  0
  7  8  2  0
  7  9  1  0
  9 10  1  0
 10 11  1  0
  6 12  1  0
 12 13  1  0
 12 14  1  0
 14 15  1  0
 15 16  1  0
 16 17  1  0
 17 18  1  0
 18 19  1  0
 18 20  1  0
 20 21  2  0
 21 22  1  0
 22 23  2  0
 22 24  1  0
 24 25  2  0
 25 26  1  0
 26 27  1  1
 26 28  1  0
 28 29  1  6
 28 30  1  0
 30 31  1  0
 30 32  1  0
 32 33  1  0
 33 34  1  1
 33  6  1  0
 33 15  1  0
 28 16  1  0
 26 20  1  0
  1 35  1  0
  1 36  1  0
  1 37  1  0
  2 38  1  0
  2 39  1  0
 10 40  1  0
 10 41  1  0
 12 42  1  1
 13 43  1  0
 13 44  1  0
 13 45  1  0
 14 46  1  0
 14 47  1  0
 15 48  1  6
 16 49  1  1
 17 50  1  0
 17 51  1  0
 18 52  1  1
 21 53  1  0
 24 54  1  0
 25 55  1  0
 27 56  1  0
 27 57  1  0
 27 58  1  0
 30 59  1  1
 31 60  1  0
 32 61  1  0
 32 62  1  0
 34 63  1  0
 34 64  1  0
 34 65  1  0
M  END
$$$$
