
     RDKit          3D

 76 78  0  0  0  0  0  0  0  0999 V2000
   -8.1041   -1.9133   -3.1989 O   0  0  0  0  0  0  0  0  0  0  0  0
   -7.3967   -0.7984   -2.7372 C   0  0  0  0  0  0  0  0  0  0  0  0
   -6.6524   -1.1055   -1.4375 C   0  0  1  0  0  0  0  0  0  0  0  0
   -5.9924    0.0491   -1.0695 O   0  0  0  0  0  0  0  0  0  0  0  0
   -5.3971    0.0179    0.1677 C   0  0  2  0  0  0  0  0  0  0  0  0
   -4.1971   -0.6729    0.2184 O   0  0  0  0  0  0  0  0  0  0  0  0
   -3.1193    0.1228    0.6058 C   0  0  1  0  0  0  0  0  0  0  0  0
   -2.5589   -0.3209    1.9374 C   0  0  2  0  0  0  0  0  0  0  0  0
   -3.5342   -0.1998    2.9104 O   0  0  0  0  0  0  0  0  0  0  0  0
   -1.3409    0.5427    2.1914 C   0  0  1  0  0  0  0  0  0  0  0  0
   -0.8445    0.1342    3.4474 O   0  0  0  0  0  0  0  0  0  0  0  0
   -0.3367    0.2628    1.1391 C   0  0  2  0  0  0  0  0  0  0  0  0
    0.5603    1.2915    0.9000 O   0  0  0  0  0  0  0  0  0  0  0  0
    1.8749    0.9535    1.1876 C   0  0  0  0  0  0  0  0  0  0  0  0
    2.7083    2.1783    0.8725 C   0  0  0  0  0  0  0  0  0  0  0  0
    4.1712    1.9663    1.1357 C   0  0  0  0  0  0  0  0  0  0  0  0
    4.7898    0.8639    0.3452 C   0  0  0  0  0  0  0  0  0  0  0  0
    6.2536    0.7854    0.7274 C   0  0  0  0  0  0  0  0  0  0  0  0
    6.9778   -0.3134   -0.0270 C   0  0  0  0  0  0  0  0  0  0  0  0
    8.4586   -0.3833    0.3683 C   0  0  0  0  0  0  0  0  0  0  0  0
    8.9803   -1.6534   -0.2676 C   0  0  0  0  0  0  0  0  0  0  0  0
    8.9881   -1.4989   -1.7575 C   0  0  0  0  0  0  0  0  0  0  0  0
    8.2427   -0.2638   -2.1797 C   0  0  0  0  0  0  0  0  0  0  0  0
    6.8838   -0.1410   -1.5070 C   0  0  0  0  0  0  0  0  0  0  0  0
   -0.8039   -0.1526   -0.0755 O   0  0  0  0  0  0  0  0  0  0  0  0
   -2.0528    0.2391   -0.4516 C   0  0  2  0  0  0  0  0  0  0  0  0
   -2.0807    1.6017   -1.1204 C   0  0  0  0  0  0  0  0  0  0  0  0
   -1.5971    2.6187   -0.2893 O   0  0  0  0  0  0  0  0  0  0  0  0
   -6.3147   -0.5030    1.2698 C   0  0  2  0  0  0  0  0  0  0  0  0
   -5.8831   -1.7958    1.5923 O   0  0  0  0  0  0  0  0  0  0  0  0
   -7.7226   -0.5374    0.6859 C   0  0  1  0  0  0  0  0  0  0  0  0
   -7.9783    0.7325    0.1438 O   0  0  0  0  0  0  0  0  0  0  0  0
   -7.6668   -1.5842   -0.4248 C   0  0  2  0  0  0  0  0  0  0  0  0
   -7.2662   -2.7814    0.1732 O   0  0  0  0  0  0  0  0  0  0  0  0
   -9.0588   -1.8430   -3.0094 H   0  0  0  0  0  0  0  0  0  0  0  0
   -6.6977   -0.4181   -3.5107 H   0  0  0  0  0  0  0  0  0  0  0  0
   -8.1567    0.0002   -2.5750 H   0  0  0  0  0  0  0  0  0  0  0  0
   -5.9569   -1.9344   -1.6516 H   0  0  0  0  0  0  0  0  0  0  0  0
   -5.1989    1.0892    0.4623 H   0  0  0  0  0  0  0  0  0  0  0  0
   -3.5287    1.1478    0.7794 H   0  0  0  0  0  0  0  0  0  0  0  0
   -2.2601   -1.3909    1.7994 H   0  0  0  0  0  0  0  0  0  0  0  0
   -3.1253    0.2163    3.7136 H   0  0  0  0  0  0  0  0  0  0  0  0
   -1.7066    1.5841    2.2558 H   0  0  0  0  0  0  0  0  0  0  0  0
   -0.5276   -0.8098    3.2764 H   0  0  0  0  0  0  0  0  0  0  0  0
    0.3100   -0.5851    1.5163 H   0  0  0  0  0  0  0  0  0  0  0  0
    2.2415    0.1072    0.5724 H   0  0  0  0  0  0  0  0  0  0  0  0
    2.0561    0.6822    2.2280 H   0  0  0  0  0  0  0  0  0  0  0  0
    2.3815    3.0090    1.5266 H   0  0  0  0  0  0  0  0  0  0  0  0
    2.5629    2.5366   -0.1651 H   0  0  0  0  0  0  0  0  0  0  0  0
    4.6781    2.9096    0.8102 H   0  0  0  0  0  0  0  0  0  0  0  0
    4.4149    1.8519    2.1976 H   0  0  0  0  0  0  0  0  0  0  0  0
    4.3410   -0.1184    0.5555 H   0  0  0  0  0  0  0  0  0  0  0  0
    4.7795    1.1026   -0.7493 H   0  0  0  0  0  0  0  0  0  0  0  0
    6.7443    1.7441    0.4022 H   0  0  0  0  0  0  0  0  0  0  0  0
    6.4234    0.7258    1.8121 H   0  0  0  0  0  0  0  0  0  0  0  0
    6.5262   -1.2692    0.2872 H   0  0  0  0  0  0  0  0  0  0  0  0
    9.0189    0.5083    0.0233 H   0  0  0  0  0  0  0  0  0  0  0  0
    8.5132   -0.5056    1.4825 H   0  0  0  0  0  0  0  0  0  0  0  0
    9.9885   -1.9423    0.0904 H   0  0  0  0  0  0  0  0  0  0  0  0
    8.2318   -2.4436   -0.0202 H   0  0  0  0  0  0  0  0  0  0  0  0
   10.0558   -1.3380   -2.0858 H   0  0  0  0  0  0  0  0  0  0  0  0
    8.6105   -2.3986   -2.2848 H   0  0  0  0  0  0  0  0  0  0  0  0
    8.8116    0.6595   -2.0207 H   0  0  0  0  0  0  0  0  0  0  0  0
    8.0158   -0.3814   -3.2777 H   0  0  0  0  0  0  0  0  0  0  0  0
    6.5361    0.8973   -1.7683 H   0  0  0  0  0  0  0  0  0  0  0  0
    6.1938   -0.8562   -1.9724 H   0  0  0  0  0  0  0  0  0  0  0  0
   -2.3605   -0.4745   -1.2588 H   0  0  0  0  0  0  0  0  0  0  0  0
   -3.1057    1.8353   -1.4751 H   0  0  0  0  0  0  0  0  0  0  0  0
   -1.4535    1.6203   -2.0351 H   0  0  0  0  0  0  0  0  0  0  0  0
   -2.3513    3.0014    0.2627 H   0  0  0  0  0  0  0  0  0  0  0  0
   -6.2686    0.1047    2.1889 H   0  0  0  0  0  0  0  0  0  0  0  0
   -5.8267   -1.9355    2.5826 H   0  0  0  0  0  0  0  0  0  0  0  0
   -8.4775   -0.7696    1.4561 H   0  0  0  0  0  0  0  0  0  0  0  0
   -8.7001    1.1945    0.6751 H   0  0  0  0  0  0  0  0  0  0  0  0
   -8.6711   -1.7505   -0.8464 H   0  0  0  0  0  0  0  0  0  0  0  0
   -8.0519   -3.1049    0.6966 H   0  0  0  0  0  0  0  0  0  0  0  0
  1  2  1  0
  2  3  1  0
  3  4  1  0
  4  5  1  0
  5  6  1  0
  6  7  1  0
  7  8  1  0
  8  9  1  0
  8 10  1  0
 10 11  1  0
 10 12  1  0
 12 13  1  0
 13 14  1  0
 14 15  1  0
 15 16  1  0
 16 17  1  0
 17 18  1  0
 18 19  1  0
 19 20  1  0
 20 21  1  0
 21 22  1  0
 22 23  1  0
 23 24  1  0
 12 25  1  0
 25 26  1  0
 26 27  1  0
 27 28  1  0
  5 29  1  0
 29 30  1  0
 29 31  1  0
 31 32  1  0
 31 33  1  0
 33 34  1  0
 33  3  1  0
 26  7  1  0
 24 19  1  0
  1 35  1  0
  2 36  1  0
  2 37  1  0
  3 38  1  6
  5 39  1  1
  7 40  1  1
  8 41  1  6
  9 42  1  0
 10 43  1  1
 11 44  1  0
 12 45  1  1
 14 46  1  0
 14 47  1  0
 15 48  1  0
 15 49  1  0
 16 50  1  0
 16 51  1  0
 17 52  1  0
 17 53  1  0
 18 54  1  0
 18 55  1  0
 19 56  1  0
 20 57  1  0
 20 58  1  0
 21 59  1  0
 21 60  1  0
 22 61  1  0
 22 62  1  0
 23 63  1  0
 23 64  1  0
 24 65  1  0
 24 66  1  0
 26 67  1  6
 27 68  1  0
 27 69  1  0
 28 70  1  0
 29 71  1  1
 30 72  1  0
 31 73  1  1
 32 74  1  0
 33 75  1  6
 34 76  1  0
M  END
$$$$
