@<TRIPOS>MOLECULE
*****
 76 78 0 0 0
SMALL
GASTEIGER

@<TRIPOS>ATOM
      1 O          -8.1041   -1.9133   -3.1989 O.3     1  UNL1       -0.3924
      2 C          -7.3967   -0.7984   -2.7372 C.3     1  UNL1        0.0730
      3 C          -6.6524   -1.1055   -1.4375 C.3     1  UNL1        0.1130
      4 O          -5.9924    0.0491   -1.0695 O.3     1  UNL1       -0.3405
      5 C          -5.3971    0.0179    0.1677 C.3     1  UNL1        0.1884
      6 O          -4.1971   -0.6729    0.2184 O.3     1  UNL1       -0.3401
      7 C          -3.1193    0.1228    0.6058 C.3     1  UNL1        0.1184
      8 C          -2.5589   -0.3209    1.9374 C.3     1  UNL1        0.1144
      9 O          -3.5342   -0.1998    2.9104 O.3     1  UNL1       -0.3864
     10 C          -1.3409    0.5427    2.1914 C.3     1  UNL1        0.1341
     11 O          -0.8445    0.1342    3.4474 O.3     1  UNL1       -0.3841
     12 C          -0.3367    0.2628    1.1391 C.3     1  UNL1        0.1879
     13 O           0.5603    1.2915    0.9000 O.3     1  UNL1       -0.3487
     14 C           1.8749    0.9535    1.1876 C.3     1  UNL1        0.0508
     15 C           2.7083    2.1783    0.8725 C.3     1  UNL1       -0.0294
     16 C           4.1712    1.9663    1.1357 C.3     1  UNL1       -0.0510
     17 C           4.7898    0.8639    0.3452 C.3     1  UNL1       -0.0527
     18 C           6.2536    0.7854    0.7274 C.3     1  UNL1       -0.0502
     19 C           6.9778   -0.3134   -0.0270 C.3     1  UNL1       -0.0410
     20 C           8.4586   -0.3833    0.3683 C.3     1  UNL1       -0.0502
     21 C           8.9803   -1.6534   -0.2676 C.3     1  UNL1       -0.0528
     22 C           8.9881   -1.4989   -1.7575 C.3     1  UNL1       -0.0530
     23 C           8.2427   -0.2638   -2.1797 C.3     1  UNL1       -0.0528
     24 C           6.8838   -0.1410   -1.5070 C.3     1  UNL1       -0.0502
     25 O          -0.8039   -0.1526   -0.0755 O.3     1  UNL1       -0.3405
     26 C          -2.0528    0.2391   -0.4516 C.3     1  UNL1        0.1134
     27 C          -2.0807    1.6017   -1.1204 C.3     1  UNL1        0.0730
     28 O          -1.5971    2.6187   -0.2893 O.3     1  UNL1       -0.3924
     29 C          -6.3147   -0.5030    1.2698 C.3     1  UNL1        0.1341
     30 O          -5.8831   -1.7958    1.5923 O.3     1  UNL1       -0.3841
     31 C          -7.7226   -0.5374    0.6859 C.3     1  UNL1        0.1141
     32 O          -7.9783    0.7325    0.1438 O.3     1  UNL1       -0.3864
     33 C          -7.6668   -1.5842   -0.4248 C.3     1  UNL1        0.1119
     34 O          -7.2662   -2.7814    0.1732 O.3     1  UNL1       -0.3865
     35 H          -9.0588   -1.8430   -3.0094 H       1  UNL1        0.2095
     36 H          -6.6977   -0.4181   -3.5107 H       1  UNL1        0.0584
     37 H          -8.1567    0.0002   -2.5750 H       1  UNL1        0.0584
     38 H          -5.9569   -1.9344   -1.6516 H       1  UNL1        0.0647
     39 H          -5.1989    1.0892    0.4623 H       1  UNL1        0.0938
     40 H          -3.5287    1.1478    0.7794 H       1  UNL1        0.0651
     41 H          -2.2601   -1.3909    1.7994 H       1  UNL1        0.0648
     42 H          -3.1253    0.2163    3.7136 H       1  UNL1        0.2100
     43 H          -1.7066    1.5841    2.2558 H       1  UNL1        0.0671
     44 H          -0.5276   -0.8098    3.2764 H       1  UNL1        0.2101
     45 H           0.3100   -0.5851    1.5163 H       1  UNL1        0.0937
     46 H           2.2415    0.1072    0.5724 H       1  UNL1        0.0561
     47 H           2.0561    0.6822    2.2280 H       1  UNL1        0.0561
     48 H           2.3815    3.0090    1.5266 H       1  UNL1        0.0287
     49 H           2.5629    2.5366   -0.1651 H       1  UNL1        0.0287
     50 H           4.6781    2.9096    0.8102 H       1  UNL1        0.0266
     51 H           4.4149    1.8519    2.1976 H       1  UNL1        0.0266
     52 H           4.3410   -0.1184    0.5555 H       1  UNL1        0.0265
     53 H           4.7795    1.1026   -0.7493 H       1  UNL1        0.0265
     54 H           6.7443    1.7441    0.4022 H       1  UNL1        0.0268
     55 H           6.4234    0.7258    1.8121 H       1  UNL1        0.0268
     56 H           6.5262   -1.2692    0.2872 H       1  UNL1        0.0301
     57 H           9.0189    0.5083    0.0233 H       1  UNL1        0.0268
     58 H           8.5132   -0.5056    1.4825 H       1  UNL1        0.0268
     59 H           9.9885   -1.9423    0.0904 H       1  UNL1        0.0265
     60 H           8.2318   -2.4436   -0.0202 H       1  UNL1        0.0265
     61 H          10.0558   -1.3380   -2.0858 H       1  UNL1        0.0265
     62 H           8.6105   -2.3986   -2.2848 H       1  UNL1        0.0265
     63 H           8.8116    0.6595   -2.0207 H       1  UNL1        0.0265
     64 H           8.0158   -0.3814   -3.2777 H       1  UNL1        0.0265
     65 H           6.5361    0.8973   -1.7683 H       1  UNL1        0.0268
     66 H           6.1938   -0.8562   -1.9724 H       1  UNL1        0.0268
     67 H          -2.3605   -0.4745   -1.2588 H       1  UNL1        0.0647
     68 H          -3.1057    1.8353   -1.4751 H       1  UNL1        0.0584
     69 H          -1.4535    1.6203   -2.0351 H       1  UNL1        0.0584
     70 H          -2.3513    3.0014    0.2627 H       1  UNL1        0.2095
     71 H          -6.2686    0.1047    2.1889 H       1  UNL1        0.0671
     72 H          -5.8267   -1.9355    2.5826 H       1  UNL1        0.2101
     73 H          -8.4775   -0.7696    1.4561 H       1  UNL1        0.0648
     74 H          -8.7001    1.1945    0.6751 H       1  UNL1        0.2100
     75 H          -8.6711   -1.7505   -0.8464 H       1  UNL1        0.0647
     76 H          -8.0519   -3.1049    0.6966 H       1  UNL1        0.2100
@<TRIPOS>BOND
     1     1     2    1
     2     2     3    1
     3     3     4    1
     4     4     5    1
     5     5     6    1
     6     6     7    1
     7     7     8    1
     8     8     9    1
     9     8    10    1
    10    10    11    1
    11    10    12    1
    12    12    13    1
    13    13    14    1
    14    14    15    1
    15    15    16    1
    16    16    17    1
    17    17    18    1
    18    18    19    1
    19    19    20    1
    20    20    21    1
    21    21    22    1
    22    22    23    1
    23    23    24    1
    24    12    25    1
    25    25    26    1
    26    26    27    1
    27    27    28    1
    28     5    29    1
    29    29    30    1
    30    29    31    1
    31    31    32    1
    32    31    33    1
    33    33    34    1
    34    33     3    1
    35    26     7    1
    36    24    19    1
    37     1    35    1
    38     2    36    1
    39     2    37    1
    40     3    38    1
    41     5    39    1
    42     7    40    1
    43     8    41    1
    44     9    42    1
    45    10    43    1
    46    11    44    1
    47    12    45    1
    48    14    46    1
    49    14    47    1
    50    15    48    1
    51    15    49    1
    52    16    50    1
    53    16    51    1
    54    17    52    1
    55    17    53    1
    56    18    54    1
    57    18    55    1
    58    19    56    1
    59    20    57    1
    60    20    58    1
    61    21    59    1
    62    21    60    1
    63    22    61    1
    64    22    62    1
    65    23    63    1
    66    23    64    1
    67    24    65    1
    68    24    66    1
    69    26    67    1
    70    27    68    1
    71    27    69    1
    72    28    70    1
    73    29    71    1
    74    30    72    1
    75    31    73    1
    76    32    74    1
    77    33    75    1
    78    34    76    1
