
     RDKit          3D

 70 75  0  0  0  0  0  0  0  0999 V2000
   -2.8052   -7.4566   -0.8949 C   0  0  0  0  0  0  0  0  0  0  0  0
   -2.2340   -6.2079   -1.2304 O   0  0  0  0  0  0  0  0  0  0  0  0
   -1.7271   -5.3682   -0.2231 C   0  0  0  0  0  0  0  0  0  0  0  0
   -1.1702   -4.1510   -0.5477 C   0  0  0  0  0  0  0  0  0  0  0  0
   -0.6701   -3.3194    0.4314 C   0  0  0  0  0  0  0  0  0  0  0  0
   -0.0816   -2.0459    0.1477 N   0  0  0  0  0  0  0  0  0  0  0  0
    1.2820   -1.7474   -0.1228 C   0  0  0  0  0  0  0  0  0  0  0  0
    2.1295   -2.5910   -0.5353 O   0  0  0  0  0  0  0  0  0  0  0  0
    1.5219   -0.3703    0.1439 N   0  0  0  0  0  0  0  0  0  0  0  0
    2.7462    0.3420    0.0087 C   0  0  0  0  0  0  0  0  0  0  0  0
    3.6203    0.4292    1.0705 C   0  0  0  0  0  0  0  0  0  0  0  0
    4.8278    1.1257    0.9508 C   0  0  0  0  0  0  0  0  0  0  0  0
    5.1457    1.7254   -0.2276 C   0  0  0  0  0  0  0  0  0  0  0  0
    6.4431    2.4780   -0.3889 C   0  0  0  0  0  0  0  0  0  0  0  0
    6.4480    3.6017   -1.2904 C   0  0  0  0  0  0  0  0  0  0  0  0
    8.2033    4.1420   -1.1296 S   0  0  0  0  0  0  0  0  0  0  0  0
    8.7172    2.8569    0.0776 C   0  0  0  0  0  0  0  0  0  0  0  0
   10.0695    2.7664    0.6085 C   0  0  0  0  0  0  0  0  0  0  0  0
   10.9621    3.5840    0.2537 O   0  0  0  0  0  0  0  0  0  0  0  0
   10.3457    1.7557    1.5145 O   0  0  0  0  0  0  0  0  0  0  0  0
    7.5572    2.1648    0.2406 C   0  0  0  0  0  0  0  0  0  0  0  0
    4.2974    1.6574   -1.3044 C   0  0  0  0  0  0  0  0  0  0  0  0
    3.0959    0.9578   -1.1671 C   0  0  0  0  0  0  0  0  0  0  0  0
    0.2766    0.1611    0.5817 C   0  0  0  0  0  0  0  0  0  0  0  0
    0.1012    1.2214    1.2745 O   0  0  0  0  0  0  0  0  0  0  0  0
   -0.7700   -0.7590    0.0743 C   0  0  0  0  0  0  0  0  0  0  0  0
   -1.9556   -0.8552    0.9784 C   0  0  0  0  0  0  0  0  0  0  0  0
   -3.0373    0.1184    0.7241 C   0  0  0  0  0  0  0  0  0  0  0  0
   -3.0908    0.7210   -0.5524 N   0  0  0  0  0  0  0  0  0  0  0  0
   -3.1005    2.1464   -0.5621 C   0  0  0  0  0  0  0  0  0  0  0  0
   -4.3259    2.5729    0.2058 C   0  0  0  0  0  0  0  0  0  0  0  0
   -4.2456    3.0447    1.4561 N   0  0  0  0  0  0  0  0  0  0  0  0
   -5.3360    3.4324    2.1637 C   0  0  0  0  0  0  0  0  0  0  0  0
   -6.6104    3.3583    1.6179 C   0  0  0  0  0  0  0  0  0  0  0  0
   -6.6966    2.8708    0.3249 C   0  0  0  0  0  0  0  0  0  0  0  0
   -5.5723    2.4787   -0.3846 C   0  0  0  0  0  0  0  0  0  0  0  0
   -5.6540    1.9513   -1.7804 C   0  0  0  0  0  0  0  0  0  0  0  0
   -2.4351    0.0697   -1.6220 C   0  0  0  0  0  0  0  0  0  0  0  0
   -1.0943   -0.5006   -1.3526 C   0  0  0  0  0  0  0  0  0  0  0  0
   -0.7584   -3.7635    1.7025 N   0  0  0  0  0  0  0  0  0  0  0  0
   -1.3071   -4.9599    2.0078 C   0  0  0  0  0  0  0  0  0  0  0  0
   -1.7949   -5.7710    1.0533 N   0  0  0  0  0  0  0  0  0  0  0  0
   -2.3985   -7.7903    0.1005 H   0  0  0  0  0  0  0  0  0  0  0  0
   -2.4724   -8.1806   -1.6617 H   0  0  0  0  0  0  0  0  0  0  0  0
   -3.9189   -7.4105   -0.8189 H   0  0  0  0  0  0  0  0  0  0  0  0
   -1.1160   -3.8273   -1.5790 H   0  0  0  0  0  0  0  0  0  0  0  0
    3.4008   -0.0357    2.0249 H   0  0  0  0  0  0  0  0  0  0  0  0
    5.5002    1.1876    1.7818 H   0  0  0  0  0  0  0  0  0  0  0  0
    5.7160    4.0202   -1.8747 H   0  0  0  0  0  0  0  0  0  0  0  0
   11.3180    1.5193    1.6698 H   0  0  0  0  0  0  0  0  0  0  0  0
    7.5808    1.2705    0.9675 H   0  0  0  0  0  0  0  0  0  0  0  0
    4.5870    2.1475   -2.2235 H   0  0  0  0  0  0  0  0  0  0  0  0
    2.4620    0.9314   -2.0381 H   0  0  0  0  0  0  0  0  0  0  0  0
   -1.5992   -0.8085    2.0286 H   0  0  0  0  0  0  0  0  0  0  0  0
   -2.3718   -1.8942    0.8602 H   0  0  0  0  0  0  0  0  0  0  0  0
   -2.9820    0.9401    1.4925 H   0  0  0  0  0  0  0  0  0  0  0  0
   -4.0442   -0.3543    0.9230 H   0  0  0  0  0  0  0  0  0  0  0  0
   -2.2210    2.5233    0.0257 H   0  0  0  0  0  0  0  0  0  0  0  0
   -3.0952    2.5903   -1.5595 H   0  0  0  0  0  0  0  0  0  0  0  0
   -5.2447    3.8105    3.1736 H   0  0  0  0  0  0  0  0  0  0  0  0
   -7.4909    3.6599    2.1598 H   0  0  0  0  0  0  0  0  0  0  0  0
   -7.6670    2.7897   -0.1556 H   0  0  0  0  0  0  0  0  0  0  0  0
   -6.6724    2.1823   -2.1665 H   0  0  0  0  0  0  0  0  0  0  0  0
   -4.9342    2.4498   -2.4412 H   0  0  0  0  0  0  0  0  0  0  0  0
   -5.5634    0.8438   -1.7941 H   0  0  0  0  0  0  0  0  0  0  0  0
   -2.3804    0.7725   -2.4829 H   0  0  0  0  0  0  0  0  0  0  0  0
   -3.1080   -0.7663   -1.9750 H   0  0  0  0  0  0  0  0  0  0  0  0
   -0.3176    0.2151   -1.7530 H   0  0  0  0  0  0  0  0  0  0  0  0
   -0.9512   -1.4213   -1.9873 H   0  0  0  0  0  0  0  0  0  0  0  0
   -1.3333   -5.2322    3.0625 H   0  0  0  0  0  0  0  0  0  0  0  0
  1  2  1  0
  2  3  1  0
  3  4  2  0
  4  5  1  0
  5  6  1  0
  6  7  1  0
  7  8  2  0
  7  9  1  0
  9 10  1  0
 10 11  2  0
 11 12  1  0
 12 13  2  0
 13 14  1  0
 14 15  2  0
 15 16  1  0
 16 17  1  0
 17 18  1  0
 18 19  2  0
 18 20  1  0
 17 21  2  0
 13 22  1  0
 22 23  2  0
  9 24  1  0
 24 25  2  0
 24 26  1  0
 26 27  1  0
 27 28  1  0
 28 29  1  0
 29 30  1  0
 30 31  1  0
 31 32  2  0
 32 33  1  0
 33 34  2  0
 34 35  1  0
 35 36  2  0
 36 37  1  0
 29 38  1  0
 38 39  1  0
  5 40  2  0
 40 41  1  0
 41 42  2  0
 42  3  1  0
 26  6  1  0
 36 31  1  0
 23 10  1  0
 39 26  1  0
 21 14  1  0
  1 43  1  0
  1 44  1  0
  1 45  1  0
  4 46  1  0
 11 47  1  0
 12 48  1  0
 15 49  1  0
 20 50  1  0
 21 51  1  0
 22 52  1  0
 23 53  1  0
 27 54  1  0
 27 55  1  0
 28 56  1  0
 28 57  1  0
 30 58  1  0
 30 59  1  0
 33 60  1  0
 34 61  1  0
 35 62  1  0
 37 63  1  0
 37 64  1  0
 37 65  1  0
 38 66  1  0
 38 67  1  0
 39 68  1  0
 39 69  1  0
 41 70  1  0
M  END
$$$$
