@<TRIPOS>MOLECULE
*****
 70 75 0 0 0
SMALL
GASTEIGER

@<TRIPOS>ATOM
      1 C          -2.8052   -7.4566   -0.8949 C.3     1  UNL1        0.0804
      2 O          -2.2340   -6.2079   -1.2304 O.3     1  UNL1       -0.4795
      3 C          -1.7271   -5.3682   -0.2231 C.ar    1  UNL1        0.2191
      4 C          -1.1702   -4.1510   -0.5477 C.ar    1  UNL1        0.0404
      5 C          -0.6701   -3.3194    0.4314 C.ar    1  UNL1        0.1364
      6 N          -0.0816   -2.0459    0.1477 N.am    1  UNL1       -0.2240
      7 C           1.2820   -1.7474   -0.1228 C.2     1  UNL1        0.3219
      8 O           2.1295   -2.5910   -0.5353 O.2     1  UNL1       -0.2512
      9 N           1.5219   -0.3703    0.1439 N.am    1  UNL1       -0.1920
     10 C           2.7462    0.3420    0.0087 C.ar    1  UNL1        0.0455
     11 C           3.6203    0.4292    1.0705 C.ar    1  UNL1       -0.0392
     12 C           4.8278    1.1257    0.9508 C.ar    1  UNL1       -0.0522
     13 C           5.1457    1.7254   -0.2276 C.ar    1  UNL1       -0.0172
     14 C           6.4431    2.4780   -0.3889 C.ar    1  UNL1       -0.0101
     15 C           6.4480    3.6017   -1.2904 C.ar    1  UNL1       -0.0158
     16 S           8.2033    4.1420   -1.1296 S.2     1  UNL1       -0.0896
     17 C           8.7172    2.8569    0.0776 C.ar    1  UNL1        0.0966
     18 C          10.0695    2.7664    0.6085 C.2     1  UNL1        0.3435
     19 O          10.9621    3.5840    0.2537 O.2     1  UNL1       -0.2445
     20 O          10.3457    1.7557    1.5145 O.3     1  UNL1       -0.4768
     21 C           7.5572    2.1648    0.2406 C.ar    1  UNL1       -0.0329
     22 C           4.2974    1.6574   -1.3044 C.ar    1  UNL1       -0.0522
     23 C           3.0959    0.9578   -1.1671 C.ar    1  UNL1       -0.0392
     24 C           0.2766    0.1611    0.5817 C.2     1  UNL1        0.2516
     25 O           0.1012    1.2214    1.2745 O.2     1  UNL1       -0.2724
     26 C          -0.7700   -0.7590    0.0743 C.3     1  UNL1        0.1240
     27 C          -1.9556   -0.8552    0.9784 C.3     1  UNL1       -0.0095
     28 C          -3.0373    0.1184    0.7241 C.3     1  UNL1        0.0017
     29 N          -3.0908    0.7210   -0.5524 N.3     1  UNL1       -0.2965
     30 C          -3.1005    2.1464   -0.5621 C.3     1  UNL1        0.0415
     31 C          -4.3259    2.5729    0.2058 C.ar    1  UNL1        0.0581
     32 N          -4.2456    3.0447    1.4561 N.ar    1  UNL1       -0.2583
     33 C          -5.3360    3.4324    2.1637 C.ar    1  UNL1        0.0279
     34 C          -6.6104    3.3583    1.6179 C.ar    1  UNL1       -0.0433
     35 C          -6.6966    2.8708    0.3249 C.ar    1  UNL1       -0.0557
     36 C          -5.5723    2.4787   -0.3846 C.ar    1  UNL1       -0.0279
     37 C          -5.6540    1.9513   -1.7804 C.3     1  UNL1       -0.0380
     38 C          -2.4351    0.0697   -1.6220 C.3     1  UNL1        0.0017
     39 C          -1.0943   -0.5006   -1.3526 C.3     1  UNL1       -0.0095
     40 N          -0.7584   -3.7635    1.7025 N.ar    1  UNL1       -0.2200
     41 C          -1.3071   -4.9599    2.0078 C.ar    1  UNL1        0.1219
     42 N          -1.7949   -5.7710    1.0533 N.ar    1  UNL1       -0.2013
     43 H          -2.3985   -7.7903    0.1005 H       1  UNL1        0.0660
     44 H          -2.4724   -8.1806   -1.6617 H       1  UNL1        0.0660
     45 H          -3.9189   -7.4105   -0.8189 H       1  UNL1        0.0660
     46 H          -1.1160   -3.8273   -1.5790 H       1  UNL1        0.0705
     47 H           3.4008   -0.0357    2.0249 H       1  UNL1        0.0636
     48 H           5.5002    1.1876    1.7818 H       1  UNL1        0.0624
     49 H           5.7160    4.0202   -1.8747 H       1  UNL1        0.0700
     50 H          11.3180    1.5193    1.6698 H       1  UNL1        0.2954
     51 H           7.5808    1.2705    0.9675 H       1  UNL1        0.0637
     52 H           4.5870    2.1475   -2.2235 H       1  UNL1        0.0624
     53 H           2.4620    0.9314   -2.0381 H       1  UNL1        0.0636
     54 H          -1.5992   -0.8085    2.0286 H       1  UNL1        0.0303
     55 H          -2.3718   -1.8942    0.8602 H       1  UNL1        0.0303
     56 H          -2.9820    0.9401    1.4925 H       1  UNL1        0.0427
     57 H          -4.0442   -0.3543    0.9230 H       1  UNL1        0.0427
     58 H          -2.2210    2.5233    0.0257 H       1  UNL1        0.0491
     59 H          -3.0952    2.5903   -1.5595 H       1  UNL1        0.0491
     60 H          -5.2447    3.8105    3.1736 H       1  UNL1        0.0829
     61 H          -7.4909    3.6599    2.1598 H       1  UNL1        0.0633
     62 H          -7.6670    2.7897   -0.1556 H       1  UNL1        0.0621
     63 H          -6.6724    2.1823   -2.1665 H       1  UNL1        0.0278
     64 H          -4.9342    2.4498   -2.4412 H       1  UNL1        0.0278
     65 H          -5.5634    0.8438   -1.7941 H       1  UNL1        0.0278
     66 H          -2.3804    0.7725   -2.4829 H       1  UNL1        0.0427
     67 H          -3.1080   -0.7663   -1.9750 H       1  UNL1        0.0427
     68 H          -0.3176    0.2151   -1.7530 H       1  UNL1        0.0303
     69 H          -0.9512   -1.4213   -1.9873 H       1  UNL1        0.0303
     70 H          -1.3333   -5.2322    3.0625 H       1  UNL1        0.1049
@<TRIPOS>BOND
     1     1     2    1
     2     2     3    1
     3     3     4   ar
     4     4     5   ar
     5     5     6    1
     6     6     7   am
     7     7     8    2
     8     7     9   am
     9     9    10    1
    10    10    11   ar
    11    11    12   ar
    12    12    13   ar
    13    13    14    1
    14    14    15   ar
    15    15    16   ar
    16    16    17   ar
    17    17    18    1
    18    18    19    2
    19    18    20    1
    20    17    21   ar
    21    13    22   ar
    22    22    23   ar
    23     9    24   am
    24    24    25    2
    25    24    26    1
    26    26    27    1
    27    27    28    1
    28    28    29    1
    29    29    30    1
    30    30    31    1
    31    31    32   ar
    32    32    33   ar
    33    33    34   ar
    34    34    35   ar
    35    35    36   ar
    36    36    37    1
    37    29    38    1
    38    38    39    1
    39     5    40   ar
    40    40    41   ar
    41    41    42   ar
    42    42     3   ar
    43    26     6    1
    44    36    31   ar
    45    23    10   ar
    46    39    26    1
    47    21    14   ar
    48     1    43    1
    49     1    44    1
    50     1    45    1
    51     4    46    1
    52    11    47    1
    53    12    48    1
    54    15    49    1
    55    20    50    1
    56    21    51    1
    57    22    52    1
    58    23    53    1
    59    27    54    1
    60    27    55    1
    61    28    56    1
    62    28    57    1
    63    30    58    1
    64    30    59    1
    65    33    60    1
    66    34    61    1
    67    35    62    1
    68    37    63    1
    69    37    64    1
    70    37    65    1
    71    38    66    1
    72    38    67    1
    73    39    68    1
    74    39    69    1
    75    41    70    1
