@<TRIPOS>MOLECULE
*****
 46 48 0 0 0
SMALL
GASTEIGER

@<TRIPOS>ATOM
      1 C           3.4278   -1.5571    1.3313 C.3     1  UNL1       -0.0265
      2 C           3.1628   -0.7276    0.0962 C.3     1  UNL1        0.1117
      3 C           4.3847    0.0203   -0.3666 C.3     1  UNL1        0.0352
      4 N           4.9278    0.9668    0.5202 N.3     1  UNL1       -0.3049
      5 C           5.5454    0.5093    1.7131 C.3     1  UNL1       -0.0129
      6 C           4.2757    2.2312    0.6176 C.3     1  UNL1       -0.0129
      7 O           2.7076   -1.6347   -0.8940 O.3     1  UNL1       -0.4701
      8 C           1.4865   -1.5177   -1.5281 C.ar    1  UNL1        0.2538
      9 N           0.5970   -0.5315   -1.2625 N.ar    1  UNL1       -0.1938
     10 C          -0.5839   -0.4454   -1.8987 C.ar    1  UNL1        0.1461
     11 N          -1.5478    0.5826   -1.6479 N.pl3   1  UNL1       -0.2831
     12 C          -2.6505    0.4039   -0.7895 C.ar    1  UNL1        0.1245
     13 C          -3.5557    1.3974   -0.5888 C.ar    1  UNL1       -0.0138
     14 C          -4.6576    1.2715    0.2288 C.ar    1  UNL1       -0.0118
     15 C          -5.5625    2.2947    0.4106 C.ar    1  UNL1       -0.0538
     16 C          -6.6466    2.1006    1.2396 C.ar    1  UNL1       -0.0598
     17 C          -6.8674    0.9335    1.8940 C.ar    1  UNL1       -0.0427
     18 C          -5.9521   -0.1059    1.7126 C.ar    1  UNL1        0.0501
     19 CL         -6.1977   -1.6222    2.5414 Cl      1  UNL1       -0.0829
     20 C          -4.8559    0.0641    0.8854 C.ar    1  UNL1        0.0187
     21 C          -3.9247   -0.9216    0.6645 C.ar    1  UNL1        0.0388
     22 N          -2.8515   -0.7738   -0.1433 N.ar    1  UNL1       -0.2395
     23 C          -0.9495   -1.3812   -2.8737 C.ar    1  UNL1        0.0693
     24 N          -0.0696   -2.3545   -3.1348 N.ar    1  UNL1       -0.2364
     25 C           1.1272   -2.4321   -2.4824 C.ar    1  UNL1        0.2019
     26 C           1.9769   -3.5188   -2.8660 C.1     1  UNL1        0.1246
     27 N           2.6671   -4.3859   -3.1560 N.1     1  UNL1       -0.1891
     28 H           4.4766   -1.8128    1.4839 H       1  UNL1        0.0266
     29 H           2.9437   -1.0410    2.1955 H       1  UNL1        0.0266
     30 H           2.8918   -2.5552    1.2771 H       1  UNL1        0.0266
     31 H           2.3588    0.0248    0.2382 H       1  UNL1        0.0743
     32 H           4.2235    0.4959   -1.3562 H       1  UNL1        0.0462
     33 H           5.1715   -0.7647   -0.5577 H       1  UNL1        0.0462
     34 H           4.8742    0.2898    2.5619 H       1  UNL1        0.0391
     35 H           6.2993   -0.2818    1.5178 H       1  UNL1        0.0391
     36 H           6.1729    1.3785    2.0896 H       1  UNL1        0.0391
     37 H           4.5539    2.6960    1.5863 H       1  UNL1        0.0391
     38 H           3.1732    2.1721    0.5157 H       1  UNL1        0.0391
     39 H           4.7184    2.9189   -0.1605 H       1  UNL1        0.0391
     40 H          -1.4330    1.5071   -2.1205 H       1  UNL1        0.1550
     41 H          -3.4340    2.3585   -1.0859 H       1  UNL1        0.0658
     42 H          -5.3759    3.2226   -0.1141 H       1  UNL1        0.0624
     43 H          -7.3213    2.9279    1.3472 H       1  UNL1        0.0618
     44 H          -7.7148    0.7553    2.5538 H       1  UNL1        0.0632
     45 H          -4.0861   -1.8627    1.1800 H       1  UNL1        0.0837
     46 H          -1.9061   -1.2950   -3.3750 H       1  UNL1        0.0865
@<TRIPOS>BOND
     1     1     2    1
     2     2     3    1
     3     3     4    1
     4     4     5    1
     5     4     6    1
     6     2     7    1
     7     7     8    1
     8     8     9   ar
     9     9    10   ar
    10    10    11    1
    11    11    12    1
    12    12    13   ar
    13    13    14   ar
    14    14    15   ar
    15    15    16   ar
    16    16    17   ar
    17    17    18   ar
    18    18    19    1
    19    18    20   ar
    20    20    21   ar
    21    21    22   ar
    22    10    23   ar
    23    23    24   ar
    24    24    25   ar
    25    25    26    1
    26    26    27    3
    27    25     8   ar
    28    22    12   ar
    29    20    14   ar
    30     1    28    1
    31     1    29    1
    32     1    30    1
    33     2    31    1
    34     3    32    1
    35     3    33    1
    36     5    34    1
    37     5    35    1
    38     5    36    1
    39     6    37    1
    40     6    38    1
    41     6    39    1
    42    11    40    1
    43    13    41    1
    44    15    42    1
    45    16    43    1
    46    17    44    1
    47    21    45    1
    48    23    46    1
