
     RDKit          3D

 60 64  0  0  0  0  0  0  0  0999 V2000
    1.6836   -0.8436    1.8520 O   0  0  0  0  0  0  0  0  0  0  0  0
    0.8420   -0.8026    0.9406 C   0  0  0  0  0  0  0  0  0  0  0  0
    1.3537   -1.0071   -0.3721 N   0  0  0  0  0  0  0  0  0  0  0  0
    2.6816   -1.2462   -0.7476 C   0  0  1  0  0  0  0  0  0  0  0  0
    2.7973   -2.6469   -1.3491 C   0  0  0  0  0  0  0  0  0  0  0  0
    2.8988   -2.4731   -2.8280 C   0  0  0  0  0  0  0  0  0  0  0  0
    2.9790   -1.0099   -3.1320 C   0  0  0  0  0  0  0  0  0  0  0  0
    3.3179   -0.4015   -1.7784 C   0  0  1  0  0  0  0  0  0  0  0  0
    3.0897    0.9299   -1.7021 O   0  0  0  0  0  0  0  0  0  0  0  0
    4.1491    1.7548   -1.5466 C   0  0  0  0  0  0  0  0  0  0  0  0
    4.9621    1.5498   -0.3243 C   0  0  0  0  0  0  0  0  0  0  0  0
    4.5841    2.1230    0.8934 C   0  0  0  0  0  0  0  0  0  0  0  0
    5.3355    1.9605    2.0300 C   0  0  0  0  0  0  0  0  0  0  0  0
    6.4892    1.2242    2.0030 C   0  0  0  0  0  0  0  0  0  0  0  0
    6.8706    0.6492    0.7855 C   0  0  0  0  0  0  0  0  0  0  0  0
    6.1235    0.8076   -0.3576 C   0  0  0  0  0  0  0  0  0  0  0  0
   -0.5566   -0.5572    1.2698 C   0  0  0  0  0  0  0  0  0  0  0  0
   -1.5017   -1.6474    0.8676 C   0  0  0  0  0  0  0  0  0  0  0  0
   -2.5421   -1.0743   -0.0713 C   0  0  0  0  0  0  0  0  0  0  0  0
   -3.1749    0.0967    0.4420 N   0  0  0  0  0  0  0  0  0  0  0  0
   -4.5850    0.2816    0.4940 C   0  0  0  0  0  0  0  0  0  0  0  0
   -5.3944    0.8228   -0.4348 N   0  0  0  0  0  0  0  0  0  0  0  0
   -6.6575    0.8026    0.0211 C   0  0  0  0  0  0  0  0  0  0  0  0
   -7.8960    1.1951   -0.4400 C   0  0  0  0  0  0  0  0  0  0  0  0
   -9.0585    1.0351    0.2913 C   0  0  0  0  0  0  0  0  0  0  0  0
  -10.6166    1.5414   -0.3168 Cl  0  0  0  0  0  0  0  0  0  0  0  0
   -8.9723    0.4572    1.5364 C   0  0  0  0  0  0  0  0  0  0  0  0
   -7.7573    0.0570    2.0221 C   0  0  0  0  0  0  0  0  0  0  0  0
   -6.6002    0.2223    1.2812 C   0  0  0  0  0  0  0  0  0  0  0  0
   -5.3351   -0.0665    1.5052 O   0  0  0  0  0  0  0  0  0  0  0  0
   -2.3450    1.1718    0.9445 C   0  0  0  0  0  0  0  0  0  0  0  0
   -0.9201    0.7859    0.6152 C   0  0  0  0  0  0  0  0  0  0  0  0
    0.6118   -0.9660   -1.1235 H   0  0  0  0  0  0  0  0  0  0  0  0
    3.3274   -1.2565    0.1583 H   0  0  0  0  0  0  0  0  0  0  0  0
    3.6517   -3.2051   -0.9337 H   0  0  0  0  0  0  0  0  0  0  0  0
    1.8848   -3.2470   -1.1157 H   0  0  0  0  0  0  0  0  0  0  0  0
    2.0088   -2.9226   -3.3530 H   0  0  0  0  0  0  0  0  0  0  0  0
    3.7987   -3.0250   -3.1886 H   0  0  0  0  0  0  0  0  0  0  0  0
    3.8170   -0.8652   -3.8572 H   0  0  0  0  0  0  0  0  0  0  0  0
    2.0873   -0.5942   -3.5860 H   0  0  0  0  0  0  0  0  0  0  0  0
    4.4136   -0.5496   -1.6940 H   0  0  0  0  0  0  0  0  0  0  0  0
    3.7288    2.8017   -1.4362 H   0  0  0  0  0  0  0  0  0  0  0  0
    4.8017    1.8459   -2.4484 H   0  0  0  0  0  0  0  0  0  0  0  0
    3.6781    2.7126    0.9561 H   0  0  0  0  0  0  0  0  0  0  0  0
    5.0483    2.4069    2.9950 H   0  0  0  0  0  0  0  0  0  0  0  0
    7.1219    1.0667    2.8859 H   0  0  0  0  0  0  0  0  0  0  0  0
    7.7834    0.0553    0.7228 H   0  0  0  0  0  0  0  0  0  0  0  0
    6.5113    0.3310   -1.2581 H   0  0  0  0  0  0  0  0  0  0  0  0
   -0.6503   -0.3695    2.3577 H   0  0  0  0  0  0  0  0  0  0  0  0
   -1.0086   -2.4761    0.3221 H   0  0  0  0  0  0  0  0  0  0  0  0
   -2.0499   -2.0165    1.7582 H   0  0  0  0  0  0  0  0  0  0  0  0
   -2.0154   -0.8343   -1.0353 H   0  0  0  0  0  0  0  0  0  0  0  0
   -3.3089   -1.8305   -0.3486 H   0  0  0  0  0  0  0  0  0  0  0  0
   -7.9474    1.6525   -1.4310 H   0  0  0  0  0  0  0  0  0  0  0  0
   -9.8941    0.3305    2.1158 H   0  0  0  0  0  0  0  0  0  0  0  0
   -7.6954   -0.3950    2.9977 H   0  0  0  0  0  0  0  0  0  0  0  0
   -2.5380    2.1297    0.4253 H   0  0  0  0  0  0  0  0  0  0  0  0
   -2.4367    1.3202    2.0333 H   0  0  0  0  0  0  0  0  0  0  0  0
   -0.7747    0.6882   -0.4766 H   0  0  0  0  0  0  0  0  0  0  0  0
   -0.1998    1.5199    0.9923 H   0  0  0  0  0  0  0  0  0  0  0  0
  1  2  2  0
  2  3  1  0
  3  4  1  0
  4  5  1  0
  5  6  1  0
  6  7  1  0
  7  8  1  0
  8  9  1  0
  9 10  1  0
 10 11  1  0
 11 12  2  0
 12 13  1  0
 13 14  2  0
 14 15  1  0
 15 16  2  0
  2 17  1  0
 17 18  1  0
 18 19  1  0
 19 20  1  0
 20 21  1  0
 21 22  2  0
 22 23  1  0
 23 24  2  0
 24 25  1  0
 25 26  1  0
 25 27  2  0
 27 28  1  0
 28 29  2  0
 29 30  1  0
 20 31  1  0
 31 32  1  0
  8  4  1  0
 16 11  1  0
 32 17  1  0
 30 21  1  0
 29 23  1  0
  3 33  1  0
  4 34  1  1
  5 35  1  0
  5 36  1  0
  6 37  1  0
  6 38  1  0
  7 39  1  0
  7 40  1  0
  8 41  1  1
 10 42  1  0
 10 43  1  0
 12 44  1  0
 13 45  1  0
 14 46  1  0
 15 47  1  0
 16 48  1  0
 17 49  1  0
 18 50  1  0
 18 51  1  0
 19 52  1  0
 19 53  1  0
 24 54  1  0
 27 55  1  0
 28 56  1  0
 31 57  1  0
 31 58  1  0
 32 59  1  0
 32 60  1  0
M  END
$$$$
