@<TRIPOS>MOLECULE
*****
 60 64 0 0 0
SMALL
GASTEIGER

@<TRIPOS>ATOM
      1 O           1.6836   -0.8436    1.8520 O.2     1  UNL1       -0.2755
      2 C           0.8420   -0.8026    0.9406 C.2     1  UNL1        0.2165
      3 N           1.3537   -1.0071   -0.3721 N.am    1  UNL1       -0.3098
      4 C           2.6816   -1.2462   -0.7476 C.3     1  UNL1        0.0493
      5 C           2.7973   -2.6469   -1.3491 C.3     1  UNL1       -0.0320
      6 C           2.8988   -2.4731   -2.8280 C.3     1  UNL1       -0.0489
      7 C           2.9790   -1.0099   -3.1320 C.3     1  UNL1       -0.0248
      8 C           3.3179   -0.4015   -1.7784 C.3     1  UNL1        0.0774
      9 O           3.0897    0.9299   -1.7021 O.3     1  UNL1       -0.3702
     10 C           4.1491    1.7548   -1.5466 C.3     1  UNL1        0.0731
     11 C           4.9621    1.5498   -0.3243 C.ar    1  UNL1       -0.0219
     12 C           4.5841    2.1230    0.8934 C.ar    1  UNL1       -0.0564
     13 C           5.3355    1.9605    2.0300 C.ar    1  UNL1       -0.0614
     14 C           6.4892    1.2242    2.0030 C.ar    1  UNL1       -0.0617
     15 C           6.8706    0.6492    0.7855 C.ar    1  UNL1       -0.0614
     16 C           6.1235    0.8076   -0.3576 C.ar    1  UNL1       -0.0564
     17 C          -0.5566   -0.5572    1.2698 C.3     1  UNL1        0.0384
     18 C          -1.5017   -1.6474    0.8676 C.3     1  UNL1       -0.0259
     19 C          -2.5421   -1.0743   -0.0713 C.3     1  UNL1        0.0170
     20 N          -3.1749    0.0967    0.4420 N.pl3   1  UNL1       -0.2850
     21 C          -4.5850    0.2816    0.4940 C.ar    1  UNL1        0.2911
     22 N          -5.3944    0.8228   -0.4348 N.ar    1  UNL1       -0.1953
     23 C          -6.6575    0.8026    0.0211 C.ar    1  UNL1        0.1126
     24 C          -7.8960    1.1951   -0.4400 C.ar    1  UNL1       -0.0142
     25 C          -9.0585    1.0351    0.2913 C.ar    1  UNL1        0.0432
     26 CL        -10.6166    1.5414   -0.3168 Cl      1  UNL1       -0.0835
     27 C          -8.9723    0.4572    1.5364 C.ar    1  UNL1       -0.0398
     28 C          -7.7573    0.0570    2.0221 C.ar    1  UNL1       -0.0157
     29 C          -6.6002    0.2223    1.2812 C.ar    1  UNL1        0.1571
     30 O          -5.3351   -0.0665    1.5052 O.2     1  UNL1       -0.4244
     31 C          -2.3450    1.1718    0.9445 C.3     1  UNL1        0.0170
     32 C          -0.9201    0.7859    0.6152 C.3     1  UNL1       -0.0259
     33 H           0.6118   -0.9660   -1.1235 H       1  UNL1        0.1491
     34 H           3.3274   -1.2565    0.1583 H       1  UNL1        0.0524
     35 H           3.6517   -3.2051   -0.9337 H       1  UNL1        0.0284
     36 H           1.8848   -3.2470   -1.1157 H       1  UNL1        0.0284
     37 H           2.0088   -2.9226   -3.3530 H       1  UNL1        0.0267
     38 H           3.7987   -3.0250   -3.1886 H       1  UNL1        0.0267
     39 H           3.8170   -0.8652   -3.8572 H       1  UNL1        0.0291
     40 H           2.0873   -0.5942   -3.5860 H       1  UNL1        0.0291
     41 H           4.4136   -0.5496   -1.6940 H       1  UNL1        0.0614
     42 H           3.7288    2.8017   -1.4362 H       1  UNL1        0.0610
     43 H           4.8017    1.8459   -2.4484 H       1  UNL1        0.0610
     44 H           3.6781    2.7126    0.9561 H       1  UNL1        0.0621
     45 H           5.0483    2.4069    2.9950 H       1  UNL1        0.0618
     46 H           7.1219    1.0667    2.8859 H       1  UNL1        0.0618
     47 H           7.7834    0.0553    0.7228 H       1  UNL1        0.0618
     48 H           6.5113    0.3310   -1.2581 H       1  UNL1        0.0621
     49 H          -0.6503   -0.3695    2.3577 H       1  UNL1        0.0395
     50 H          -1.0086   -2.4761    0.3221 H       1  UNL1        0.0288
     51 H          -2.0499   -2.0165    1.7582 H       1  UNL1        0.0288
     52 H          -2.0154   -0.8343   -1.0353 H       1  UNL1        0.0465
     53 H          -3.3089   -1.8305   -0.3486 H       1  UNL1        0.0465
     54 H          -7.9474    1.6525   -1.4310 H       1  UNL1        0.0654
     55 H          -9.8941    0.3305    2.1158 H       1  UNL1        0.0633
     56 H          -7.6954   -0.3950    2.9977 H       1  UNL1        0.0655
     57 H          -2.5380    2.1297    0.4253 H       1  UNL1        0.0465
     58 H          -2.4367    1.3202    2.0333 H       1  UNL1        0.0465
     59 H          -0.7747    0.6882   -0.4766 H       1  UNL1        0.0288
     60 H          -0.1998    1.5199    0.9923 H       1  UNL1        0.0288
@<TRIPOS>BOND
     1     1     2    2
     2     2     3   am
     3     3     4    1
     4     4     5    1
     5     5     6    1
     6     6     7    1
     7     7     8    1
     8     8     9    1
     9     9    10    1
    10    10    11    1
    11    11    12   ar
    12    12    13   ar
    13    13    14   ar
    14    14    15   ar
    15    15    16   ar
    16     2    17    1
    17    17    18    1
    18    18    19    1
    19    19    20    1
    20    20    21    1
    21    21    22   ar
    22    22    23   ar
    23    23    24   ar
    24    24    25   ar
    25    25    26    1
    26    25    27   ar
    27    27    28   ar
    28    28    29   ar
    29    29    30   ar
    30    20    31    1
    31    31    32    1
    32     8     4    1
    33    16    11   ar
    34    32    17    1
    35    30    21   ar
    36    29    23   ar
    37     3    33    1
    38     4    34    1
    39     5    35    1
    40     5    36    1
    41     6    37    1
    42     6    38    1
    43     7    39    1
    44     7    40    1
    45     8    41    1
    46    10    42    1
    47    10    43    1
    48    12    44    1
    49    13    45    1
    50    14    46    1
    51    15    47    1
    52    16    48    1
    53    17    49    1
    54    18    50    1
    55    18    51    1
    56    19    52    1
    57    19    53    1
    58    24    54    1
    59    27    55    1
    60    28    56    1
    61    31    57    1
    62    31    58    1
    63    32    59    1
    64    32    60    1
