@<TRIPOS>MOLECULE
*****
 37 39 0 0 0
SMALL
GASTEIGER

@<TRIPOS>ATOM
      1 C           5.3064   -0.0250    0.3794 C.ar    1  UNL1       -0.0598
      2 C           4.3373    0.2293    1.3175 C.ar    1  UNL1       -0.0611
      3 C           3.0424    0.4586    0.9464 C.ar    1  UNL1       -0.0523
      4 C           2.6337    0.4485   -0.3851 C.ar    1  UNL1        0.0028
      5 C           1.4343    0.6432   -1.0217 C.ar    1  UNL1       -0.0223
      6 C           0.1153    0.9371   -0.4135 C.3     1  UNL1       -0.0254
      7 C          -0.5146   -0.2971    0.1844 C.3     1  UNL1       -0.0461
      8 C          -1.8609    0.1329    0.7611 C.3     1  UNL1       -0.0384
      9 C          -2.7182    0.6957   -0.3530 C.3     1  UNL1       -0.0375
     10 C          -4.1862    0.5134   -0.0151 C.3     1  UNL1       -0.0039
     11 N          -4.5277   -0.8941    0.0148 N.3     1  UNL1       -0.3160
     12 C          -3.5912   -1.7112    0.7124 C.3     1  UNL1       -0.0039
     13 C          -2.5448   -0.9735    1.4818 C.3     1  UNL1       -0.0375
     14 C           1.7303    0.4959   -2.3662 C.ar    1  UNL1        0.0059
     15 N           3.0308    0.2275   -2.5255 N.ar    1  UNL1       -0.3604
     16 C           3.6429    0.1863   -1.3153 C.ar    1  UNL1        0.0467
     17 C           4.9449   -0.0444   -0.9435 C.ar    1  UNL1       -0.0378
     18 H           6.3405   -0.2043    0.7051 H       1  UNL1        0.0618
     19 H           4.6117    0.2454    2.3528 H       1  UNL1        0.0618
     20 H           2.2449    0.6640    1.6668 H       1  UNL1        0.0624
     21 H          -0.6026    1.3478   -1.1406 H       1  UNL1        0.0314
     22 H           0.1940    1.6984    0.3865 H       1  UNL1        0.0314
     23 H          -0.6718   -1.0220   -0.6344 H       1  UNL1        0.0271
     24 H           0.1093   -0.7905    0.9448 H       1  UNL1        0.0271
     25 H          -1.6661    0.9593    1.4734 H       1  UNL1        0.0302
     26 H          -2.5589    1.7820   -0.5103 H       1  UNL1        0.0280
     27 H          -2.5416    0.1652   -1.3082 H       1  UNL1        0.0280
     28 H          -4.7824    0.9651   -0.8369 H       1  UNL1        0.0424
     29 H          -4.3899    1.0045    0.9337 H       1  UNL1        0.0424
     30 H          -4.7066   -1.2057   -0.9674 H       1  UNL1        0.1219
     31 H          -3.0860   -2.4480    0.0363 H       1  UNL1        0.0424
     32 H          -4.1243   -2.3688    1.4637 H       1  UNL1        0.0424
     33 H          -3.0501   -0.5482    2.3824 H       1  UNL1        0.0280
     34 H          -1.7823   -1.6890    1.8493 H       1  UNL1        0.0280
     35 H           0.9779    0.5936   -3.1535 H       1  UNL1        0.0810
     36 H           3.5139    0.0715   -3.4284 H       1  UNL1        0.1653
     37 H           5.6955   -0.2432   -1.6838 H       1  UNL1        0.0638
@<TRIPOS>BOND
     1     1     2   ar
     2     2     3   ar
     3     3     4   ar
     4     4     5   ar
     5     5     6    1
     6     6     7    1
     7     7     8    1
     8     8     9    1
     9     9    10    1
    10    10    11    1
    11    11    12    1
    12    12    13    1
    13     5    14   ar
    14    14    15   ar
    15    15    16   ar
    16    16    17   ar
    17    17     1   ar
    18    16     4   ar
    19    13     8    1
    20     1    18    1
    21     2    19    1
    22     3    20    1
    23     6    21    1
    24     6    22    1
    25     7    23    1
    26     7    24    1
    27     8    25    1
    28     9    26    1
    29     9    27    1
    30    10    28    1
    31    10    29    1
    32    11    30    1
    33    12    31    1
    34    12    32    1
    35    13    33    1
    36    13    34    1
    37    14    35    1
    38    15    36    1
    39    17    37    1
