
     RDKit          3D

 37 39  0  0  0  0  0  0  0  0999 V2000
    5.3064   -0.0250    0.3794 C   0  0  0  0  0  0  0  0  0  0  0  0
    4.3373    0.2293    1.3175 C   0  0  0  0  0  0  0  0  0  0  0  0
    3.0424    0.4586    0.9464 C   0  0  0  0  0  0  0  0  0  0  0  0
    2.6337    0.4485   -0.3851 C   0  0  0  0  0  0  0  0  0  0  0  0
    1.4343    0.6432   -1.0217 C   0  0  0  0  0  0  0  0  0  0  0  0
    0.1153    0.9371   -0.4135 C   0  0  0  0  0  0  0  0  0  0  0  0
   -0.5146   -0.2971    0.1844 C   0  0  0  0  0  0  0  0  0  0  0  0
   -1.8609    0.1329    0.7611 C   0  0  0  0  0  0  0  0  0  0  0  0
   -2.7182    0.6957   -0.3530 C   0  0  0  0  0  0  0  0  0  0  0  0
   -4.1862    0.5134   -0.0151 C   0  0  0  0  0  0  0  0  0  0  0  0
   -4.5277   -0.8941    0.0148 N   0  0  0  0  0  0  0  0  0  0  0  0
   -3.5912   -1.7112    0.7124 C   0  0  0  0  0  0  0  0  0  0  0  0
   -2.5448   -0.9735    1.4818 C   0  0  0  0  0  0  0  0  0  0  0  0
    1.7303    0.4959   -2.3662 C   0  0  0  0  0  0  0  0  0  0  0  0
    3.0308    0.2275   -2.5255 N   0  0  0  0  0  0  0  0  0  0  0  0
    3.6429    0.1863   -1.3153 C   0  0  0  0  0  0  0  0  0  0  0  0
    4.9449   -0.0444   -0.9435 C   0  0  0  0  0  0  0  0  0  0  0  0
    6.3405   -0.2043    0.7051 H   0  0  0  0  0  0  0  0  0  0  0  0
    4.6117    0.2454    2.3528 H   0  0  0  0  0  0  0  0  0  0  0  0
    2.2449    0.6640    1.6668 H   0  0  0  0  0  0  0  0  0  0  0  0
   -0.6026    1.3478   -1.1406 H   0  0  0  0  0  0  0  0  0  0  0  0
    0.1940    1.6984    0.3865 H   0  0  0  0  0  0  0  0  0  0  0  0
   -0.6718   -1.0220   -0.6344 H   0  0  0  0  0  0  0  0  0  0  0  0
    0.1093   -0.7905    0.9448 H   0  0  0  0  0  0  0  0  0  0  0  0
   -1.6661    0.9593    1.4734 H   0  0  0  0  0  0  0  0  0  0  0  0
   -2.5589    1.7820   -0.5103 H   0  0  0  0  0  0  0  0  0  0  0  0
   -2.5416    0.1652   -1.3082 H   0  0  0  0  0  0  0  0  0  0  0  0
   -4.7824    0.9651   -0.8369 H   0  0  0  0  0  0  0  0  0  0  0  0
   -4.3899    1.0045    0.9337 H   0  0  0  0  0  0  0  0  0  0  0  0
   -4.7066   -1.2057   -0.9674 H   0  0  0  0  0  0  0  0  0  0  0  0
   -3.0860   -2.4480    0.0363 H   0  0  0  0  0  0  0  0  0  0  0  0
   -4.1243   -2.3688    1.4637 H   0  0  0  0  0  0  0  0  0  0  0  0
   -3.0501   -0.5482    2.3824 H   0  0  0  0  0  0  0  0  0  0  0  0
   -1.7823   -1.6890    1.8493 H   0  0  0  0  0  0  0  0  0  0  0  0
    0.9779    0.5936   -3.1535 H   0  0  0  0  0  0  0  0  0  0  0  0
    3.5139    0.0715   -3.4284 H   0  0  0  0  0  0  0  0  0  0  0  0
    5.6955   -0.2432   -1.6838 H   0  0  0  0  0  0  0  0  0  0  0  0
  1  2  2  0
  2  3  1  0
  3  4  2  0
  4  5  1  0
  5  6  1  0
  6  7  1  0
  7  8  1  0
  8  9  1  0
  9 10  1  0
 10 11  1  0
 11 12  1  0
 12 13  1  0
  5 14  2  0
 14 15  1  0
 15 16  1  0
 16 17  2  0
 17  1  1  0
 16  4  1  0
 13  8  1  0
  1 18  1  0
  2 19  1  0
  3 20  1  0
  6 21  1  0
  6 22  1  0
  7 23  1  0
  7 24  1  0
  8 25  1  0
  9 26  1  0
  9 27  1  0
 10 28  1  0
 10 29  1  0
 11 30  1  0
 12 31  1  0
 12 32  1  0
 13 33  1  0
 13 34  1  0
 14 35  1  0
 15 36  1  0
 17 37  1  0
M  END
$$$$
