@<TRIPOS>MOLECULE
*****
 39 42 0 0 0
SMALL
GASTEIGER

@<TRIPOS>ATOM
      1 C          -6.2866    1.2926   -0.5301 C.ar    1  UNL1       -0.0615
      2 C          -6.1220   -0.0444   -0.8119 C.ar    1  UNL1       -0.0583
      3 C          -5.0661   -0.7326   -0.2324 C.ar    1  UNL1       -0.0193
      4 C          -4.2077   -0.0856    0.6039 C.ar    1  UNL1        0.1284
      5 O          -3.1484   -0.7498    1.1938 O.3     1  UNL1       -0.4560
      6 C          -1.9376   -0.7670    0.5000 C.ar    1  UNL1        0.1286
      7 C          -1.7958   -0.2103   -0.7521 C.ar    1  UNL1       -0.0176
      8 C          -0.5746   -0.2588   -1.3840 C.ar    1  UNL1       -0.0370
      9 C           0.5296   -0.8619   -0.7818 C.ar    1  UNL1        0.0326
     10 N           1.7836   -0.9303   -1.4241 N.pl3   1  UNL1       -0.2989
     11 C           2.9386   -1.1898   -0.6419 C.ar    1  UNL1        0.1339
     12 N           3.3126   -2.4034   -0.2157 N.ar    1  UNL1       -0.2200
     13 C           4.4212   -2.6140    0.5278 C.ar    1  UNL1        0.1187
     14 N           5.1768   -1.5533    0.8491 N.ar    1  UNL1       -0.2353
     15 C           4.8410   -0.3186    0.4432 C.ar    1  UNL1        0.0760
     16 C           5.6192    0.7996    0.7591 C.ar    1  UNL1       -0.0356
     17 C           5.2617    2.0612    0.3247 C.ar    1  UNL1       -0.0597
     18 C           4.1282    2.2862   -0.4375 C.ar    1  UNL1       -0.0610
     19 C           3.3614    1.1850   -0.7479 C.ar    1  UNL1       -0.0493
     20 C           3.7181   -0.0720   -0.3145 C.ar    1  UNL1        0.0404
     21 C           0.3449   -1.4039    0.4658 C.ar    1  UNL1       -0.0370
     22 C          -0.8471   -1.3707    1.1100 C.ar    1  UNL1       -0.0176
     23 C          -4.3646    1.2567    0.8929 C.ar    1  UNL1       -0.0193
     24 C          -5.4049    1.9538    0.3277 C.ar    1  UNL1       -0.0583
     25 H          -7.1221    1.8278   -0.9913 H       1  UNL1        0.0618
     26 H          -6.8189   -0.5562   -1.4866 H       1  UNL1        0.0619
     27 H          -4.9703   -1.7928   -0.4799 H       1  UNL1        0.0654
     28 H          -2.6429    0.2676   -1.2433 H       1  UNL1        0.0655
     29 H          -0.4272    0.1644   -2.3604 H       1  UNL1        0.0637
     30 H           1.8681   -0.7934   -2.4451 H       1  UNL1        0.1536
     31 H           4.6934   -3.6290    0.8582 H       1  UNL1        0.1048
     32 H           6.5130    0.6243    1.3601 H       1  UNL1        0.0639
     33 H           5.8551    2.9263    0.5647 H       1  UNL1        0.0618
     34 H           3.8656    3.2814   -0.7707 H       1  UNL1        0.0618
     35 H           2.4592    1.3491   -1.3509 H       1  UNL1        0.0625
     36 H           1.2011   -1.8826    0.9517 H       1  UNL1        0.0637
     37 H          -0.9844   -1.7981    2.0863 H       1  UNL1        0.0655
     38 H          -3.6451    1.7311    1.5701 H       1  UNL1        0.0654
     39 H          -5.5263    3.0113    0.5588 H       1  UNL1        0.0619
@<TRIPOS>BOND
     1     1     2   ar
     2     2     3   ar
     3     3     4   ar
     4     4     5    1
     5     5     6    1
     6     6     7   ar
     7     7     8   ar
     8     8     9   ar
     9     9    10    1
    10    10    11    1
    11    11    12   ar
    12    12    13   ar
    13    13    14   ar
    14    14    15   ar
    15    15    16   ar
    16    16    17   ar
    17    17    18   ar
    18    18    19   ar
    19    19    20   ar
    20     9    21   ar
    21    21    22   ar
    22     4    23   ar
    23    23    24   ar
    24    24     1   ar
    25    22     6   ar
    26    20    11   ar
    27    20    15   ar
    28     1    25    1
    29     2    26    1
    30     3    27    1
    31     7    28    1
    32     8    29    1
    33    10    30    1
    34    13    31    1
    35    16    32    1
    36    17    33    1
    37    18    34    1
    38    19    35    1
    39    21    36    1
    40    22    37    1
    41    23    38    1
    42    24    39    1
