@<TRIPOS>MOLECULE
*****
 41 43 0 0 0
SMALL
GASTEIGER

@<TRIPOS>ATOM
      1 C          -5.5764   -1.5459    0.1989 C.3     1  UNL1        0.0788
      2 O          -4.5215   -2.4536   -0.0517 O.3     1  UNL1       -0.4951
      3 C          -3.2226   -1.9817   -0.1119 C.ar    1  UNL1        0.1208
      4 C          -2.8934   -0.6625    0.0600 C.ar    1  UNL1       -0.0105
      5 C          -1.5781   -0.1930   -0.0021 C.ar    1  UNL1        0.0077
      6 C          -0.5250   -1.0630   -0.2462 C.ar    1  UNL1        0.0574
      7 C          -0.9163   -2.3734   -0.4103 C.ar    1  UNL1       -0.0337
      8 C          -2.2018   -2.8594   -0.3538 C.ar    1  UNL1       -0.0180
      9 N           0.5904   -0.3123   -0.2414 N.ar    1  UNL1       -0.2801
     10 C           1.8324   -0.8929   -0.4975 C.2     1  UNL1        0.2631
     11 O           1.7955   -2.1049   -0.8383 O.2     1  UNL1       -0.2667
     12 C           3.2230   -0.5885   -0.5141 C.ar    1  UNL1        0.0399
     13 C           4.0762   -1.2568   -1.3933 C.ar    1  UNL1       -0.0480
     14 C           5.4566   -1.0403   -1.4458 C.ar    1  UNL1       -0.0427
     15 C           5.9862   -0.1170   -0.5782 C.ar    1  UNL1        0.0410
     16 CL          7.7243    0.1515   -0.6527 Cl      1  UNL1       -0.0835
     17 C           5.2501    0.5951    0.3252 C.ar    1  UNL1       -0.0427
     18 C           3.9165    0.2959    0.2810 C.ar    1  UNL1       -0.0480
     19 C           0.2244    0.9733   -0.0038 C.ar    1  UNL1        0.0284
     20 C           1.0712    2.1868    0.0619 C.3     1  UNL1       -0.0235
     21 C          -1.1533    1.1084    0.1586 C.ar    1  UNL1       -0.0080
     22 C          -1.9857    2.2889    0.4335 C.3     1  UNL1        0.0721
     23 C          -2.4373    2.3622    1.8464 C.2     1  UNL1        0.3091
     24 O          -3.2253    3.4301    2.2194 O.3     1  UNL1       -0.4804
     25 O          -2.2727    1.6449    2.8686 O.2     1  UNL1       -0.2507
     26 H          -5.7565   -0.8936   -0.6916 H       1  UNL1        0.0660
     27 H          -6.5139   -2.1116    0.4229 H       1  UNL1        0.0660
     28 H          -5.2968   -0.9335    1.0770 H       1  UNL1        0.0660
     29 H          -3.6984    0.0190    0.2489 H       1  UNL1        0.0661
     30 H          -0.1705   -3.1191   -0.6012 H       1  UNL1        0.0640
     31 H          -2.4268   -3.9069   -0.4938 H       1  UNL1        0.0655
     32 H           3.7503   -1.9997   -2.1155 H       1  UNL1        0.0626
     33 H           6.0916   -1.5652   -2.1301 H       1  UNL1        0.0632
     34 H           5.6861    1.3038    0.9856 H       1  UNL1        0.0632
     35 H           3.3397    0.8545    1.0264 H       1  UNL1        0.0626
     36 H           1.9564    2.0725   -0.6278 H       1  UNL1        0.0292
     37 H           0.4990    3.1034   -0.2221 H       1  UNL1        0.0292
     38 H           1.4848    2.2829    1.0842 H       1  UNL1        0.0292
     39 H          -2.9322    2.1763   -0.1761 H       1  UNL1        0.0427
     40 H          -1.4701    3.1943    0.1359 H       1  UNL1        0.0427
     41 H          -3.1802    3.9308    3.0957 H       1  UNL1        0.2951
@<TRIPOS>BOND
     1     1     2    1
     2     2     3    1
     3     3     4   ar
     4     4     5   ar
     5     5     6   ar
     6     6     7   ar
     7     7     8   ar
     8     6     9   ar
     9     9    10   am
    10    10    11    2
    11    10    12    1
    12    12    13   ar
    13    13    14   ar
    14    14    15   ar
    15    15    16    1
    16    15    17   ar
    17    17    18   ar
    18     9    19   ar
    19    19    20    1
    20    19    21   ar
    21    21    22    1
    22    22    23    1
    23    23    24    1
    24    23    25    2
    25     8     3   ar
    26    18    12   ar
    27    21     5   ar
    28     1    26    1
    29     1    27    1
    30     1    28    1
    31     4    29    1
    32     7    30    1
    33     8    31    1
    34    13    32    1
    35    14    33    1
    36    17    34    1
    37    18    35    1
    38    20    36    1
    39    20    37    1
    40    20    38    1
    41    22    39    1
    42    22    40    1
    43    24    41    1
