@<TRIPOS>MOLECULE
*****
 70 73 0 0 0
SMALL
GASTEIGER

@<TRIPOS>ATOM
      1 C          -3.5836   -6.2724    2.1504 C.3     1  UNL1       -0.0128
      2 N          -3.3517   -5.1736    1.2543 N.3     1  UNL1       -0.3052
      3 C          -4.1697   -4.0532    1.6105 C.3     1  UNL1        0.0003
      4 C          -3.9477   -2.8346    0.7732 C.3     1  UNL1       -0.0216
      5 C          -2.4706   -2.6225    0.5275 C.3     1  UNL1        0.0257
      6 N          -2.0684   -1.2581    0.5047 N.am    1  UNL1       -0.3083
      7 C          -1.4666   -0.6700   -0.6828 C.2     1  UNL1        0.2491
      8 O          -1.3448   -1.4600   -1.6201 O.2     1  UNL1       -0.2700
      9 C          -1.0784    0.7192   -0.6605 C.ar    1  UNL1        0.0945
     10 C          -1.9426    1.5538    0.1017 C.ar    1  UNL1        0.0466
     11 N          -1.7717    2.8683    0.0164 N.ar    1  UNL1       -0.2218
     12 C          -0.8372    3.4569   -0.7420 C.ar    1  UNL1        0.2212
     13 N          -0.6906    4.8637   -0.8066 N.pl3   1  UNL1       -0.2835
     14 C          -1.4395    5.8499   -0.1640 C.ar    1  UNL1        0.0363
     15 C          -1.0520    7.2003   -0.2636 C.ar    1  UNL1       -0.0220
     16 C          -1.7236    8.2269    0.3239 C.ar    1  UNL1        0.0441
     17 CL         -1.1451    9.8817    0.1310 Cl      1  UNL1       -0.0834
     18 C          -2.8455    7.9475    1.0599 C.ar    1  UNL1       -0.0249
     19 C          -3.2957    6.6565    1.2098 C.ar    1  UNL1        0.0441
     20 CL         -4.7364    6.2753    2.1518 Cl      1  UNL1       -0.0834
     21 C          -2.5713    5.6365    0.5867 C.ar    1  UNL1       -0.0220
     22 N          -0.0385    2.6511   -1.4441 N.ar    1  UNL1       -0.1987
     23 C          -0.1257    1.2602   -1.4278 C.ar    1  UNL1        0.1363
     24 N           0.9131    0.6123   -2.0845 N.pl3   1  UNL1       -0.3255
     25 C           1.3884   -0.7190   -2.0191 C.3     1  UNL1        0.0221
     26 C           1.6286   -1.1617   -0.6100 C.3     1  UNL1       -0.0331
     27 C           3.0639   -1.5232   -0.3577 C.3     1  UNL1       -0.0357
     28 C           3.9873   -0.4108   -0.7315 C.3     1  UNL1        0.0100
     29 N           5.3810   -0.7975   -0.6688 N.3     1  UNL1       -0.3054
     30 C           5.7786   -1.2282    0.6600 C.3     1  UNL1       -0.0128
     31 C           6.2258    0.2786   -1.1476 C.3     1  UNL1       -0.0128
     32 C           3.6931    0.1137   -2.1060 C.3     1  UNL1       -0.0357
     33 C           2.7472   -0.7995   -2.8019 C.3     1  UNL1       -0.0331
     34 C          -1.7351   -3.4499    1.5608 C.3     1  UNL1       -0.0216
     35 C          -1.9480   -4.9027    1.1808 C.3     1  UNL1        0.0003
     36 H          -4.4563   -6.0750    2.8208 H       1  UNL1        0.0391
     37 H          -2.6866   -6.5305    2.7183 H       1  UNL1        0.0391
     38 H          -3.9079   -7.1472    1.5163 H       1  UNL1        0.0391
     39 H          -4.1375   -3.8349    2.7137 H       1  UNL1        0.0427
     40 H          -5.2385   -4.3733    1.4320 H       1  UNL1        0.0427
     41 H          -4.5072   -2.9961   -0.1929 H       1  UNL1        0.0295
     42 H          -4.4007   -1.9667    1.2488 H       1  UNL1        0.0295
     43 H          -2.2522   -3.0959   -0.4562 H       1  UNL1        0.0499
     44 H          -2.1743   -0.6417    1.3247 H       1  UNL1        0.1493
     45 H          -2.7053    1.0923    0.7084 H       1  UNL1        0.0839
     46 H           0.1021    5.1935   -1.4361 H       1  UNL1        0.1550
     47 H          -0.1591    7.4066   -0.8509 H       1  UNL1        0.0651
     48 H          -3.3987    8.7499    1.5384 H       1  UNL1        0.0647
     49 H          -2.9554    4.6248    0.7202 H       1  UNL1        0.0651
     50 H           1.4510    1.2465   -2.8027 H       1  UNL1        0.1478
     51 H           0.7484   -1.4207   -2.5579 H       1  UNL1        0.0498
     52 H           1.2675   -0.4058    0.1362 H       1  UNL1        0.0284
     53 H           1.0146   -2.0909   -0.4191 H       1  UNL1        0.0284
     54 H           3.2843   -2.4763   -0.8849 H       1  UNL1        0.0281
     55 H           3.1242   -1.6894    0.7614 H       1  UNL1        0.0281
     56 H           3.7913    0.4343   -0.0091 H       1  UNL1        0.0462
     57 H           5.1181   -2.0738    0.9427 H       1  UNL1        0.0391
     58 H           6.7987   -1.6637    0.5652 H       1  UNL1        0.0391
     59 H           5.7259   -0.4171    1.4115 H       1  UNL1        0.0391
     60 H           6.6037    0.0040   -2.1525 H       1  UNL1        0.0391
     61 H           5.6032    1.1830   -1.2421 H       1  UNL1        0.0391
     62 H           7.0598    0.4237   -0.4243 H       1  UNL1        0.0391
     63 H           4.6476    0.1077   -2.7053 H       1  UNL1        0.0281
     64 H           3.3507    1.1719   -2.0874 H       1  UNL1        0.0281
     65 H           3.0663   -1.8379   -2.7188 H       1  UNL1        0.0284
     66 H           2.5647   -0.5057   -3.8486 H       1  UNL1        0.0284
     67 H          -2.1609   -3.3294    2.5786 H       1  UNL1        0.0295
     68 H          -0.6520   -3.2335    1.5515 H       1  UNL1        0.0295
     69 H          -1.6045   -5.0146    0.1380 H       1  UNL1        0.0427
     70 H          -1.3518   -5.5336    1.8863 H       1  UNL1        0.0427
@<TRIPOS>BOND
     1     1     2    1
     2     2     3    1
     3     3     4    1
     4     4     5    1
     5     5     6    1
     6     6     7   am
     7     7     8    2
     8     7     9    1
     9     9    10   ar
    10    10    11   ar
    11    11    12   ar
    12    12    13    1
    13    13    14    1
    14    14    15   ar
    15    15    16   ar
    16    16    17    1
    17    16    18   ar
    18    18    19   ar
    19    19    20    1
    20    19    21   ar
    21    12    22   ar
    22    22    23   ar
    23    23    24    1
    24    24    25    1
    25    25    26    1
    26    26    27    1
    27    27    28    1
    28    28    29    1
    29    29    30    1
    30    29    31    1
    31    28    32    1
    32    32    33    1
    33     5    34    1
    34    34    35    1
    35    35     2    1
    36    23     9   ar
    37    33    25    1
    38    21    14   ar
    39     1    36    1
    40     1    37    1
    41     1    38    1
    42     3    39    1
    43     3    40    1
    44     4    41    1
    45     4    42    1
    46     5    43    1
    47     6    44    1
    48    10    45    1
    49    13    46    1
    50    15    47    1
    51    18    48    1
    52    21    49    1
    53    24    50    1
    54    25    51    1
    55    26    52    1
    56    26    53    1
    57    27    54    1
    58    27    55    1
    59    28    56    1
    60    30    57    1
    61    30    58    1
    62    30    59    1
    63    31    60    1
    64    31    61    1
    65    31    62    1
    66    32    63    1
    67    32    64    1
    68    33    65    1
    69    33    66    1
    70    34    67    1
    71    34    68    1
    72    35    69    1
    73    35    70    1
