@<TRIPOS>MOLECULE
*****
 24 24 0 0 0
SMALL
GASTEIGER

@<TRIPOS>ATOM
      1 C           3.1650   -1.1499   -0.3612 C.3     1  UNL1       -0.0306
      2 C           2.6406    0.1230    0.2238 C.3     1  UNL1        0.0900
      3 O           1.2361    0.1477    0.3835 O.3     1  UNL1       -0.4614
      4 C           0.3374    0.0107   -0.6602 C.2     1  UNL1        0.3427
      5 O           0.8369   -0.1432   -1.8054 O.2     1  UNL1       -0.2448
      6 C          -1.0457    0.0818   -0.1524 C.ar    1  UNL1        0.1018
      7 C          -1.6574    1.3165   -0.0872 C.ar    1  UNL1        0.0472
      8 C          -1.1456    2.6688   -0.4576 C.3     1  UNL1       -0.0221
      9 N          -2.8953    1.0603    0.4097 N.ar    1  UNL1       -0.2808
     10 N          -3.0787   -0.2235    0.6484 N.ar    1  UNL1       -0.1781
     11 C          -1.9375   -0.8921    0.3101 C.ar    1  UNL1        0.0740
     12 C          -1.5398   -2.3187    0.3503 C.3     1  UNL1       -0.0198
     13 H           2.4259   -1.6734   -1.0199 H       1  UNL1        0.0262
     14 H           3.5547   -1.8579    0.4070 H       1  UNL1        0.0262
     15 H           4.0656   -0.8837   -0.9866 H       1  UNL1        0.0262
     16 H           3.0574    0.1638    1.2721 H       1  UNL1        0.0695
     17 H           3.0473    1.0001   -0.2808 H       1  UNL1        0.0695
     18 H          -0.0563    2.7350   -0.2122 H       1  UNL1        0.0293
     19 H          -1.1915    2.7324   -1.5702 H       1  UNL1        0.0293
     20 H          -1.7611    3.4358    0.0094 H       1  UNL1        0.0293
     21 H          -3.6033    1.8282    0.5728 H       1  UNL1        0.1885
     22 H          -2.4394   -2.9083    0.6611 H       1  UNL1        0.0293
     23 H          -1.2494   -2.7260   -0.6507 H       1  UNL1        0.0293
     24 H          -0.7662   -2.5275    1.1218 H       1  UNL1        0.0293
@<TRIPOS>BOND
     1     1     2    1
     2     2     3    1
     3     3     4    1
     4     4     5    2
     5     4     6    1
     6     6     7   ar
     7     7     8    1
     8     7     9   ar
     9     9    10   ar
    10    10    11   ar
    11    11    12    1
    12    11     6   ar
    13     1    13    1
    14     1    14    1
    15     1    15    1
    16     2    16    1
    17     2    17    1
    18     8    18    1
    19     8    19    1
    20     8    20    1
    21     9    21    1
    22    12    22    1
    23    12    23    1
    24    12    24    1
