
     RDKit          3D

 74 78  0  0  0  0  0  0  0  0999 V2000
   -3.0872   -3.6226   -3.3340 C   0  0  0  0  0  0  0  0  0  0  0  0
   -3.0032   -2.2574   -2.6738 C   0  0  0  0  0  0  0  0  0  0  0  0
   -3.7871   -1.2734   -3.4230 C   0  0  0  0  0  0  0  0  0  0  0  0
   -3.3798   -2.3744   -1.1876 C   0  0  0  0  0  0  0  0  0  0  0  0
   -2.4455   -3.5369   -0.8512 C   0  0  0  0  0  0  0  0  0  0  0  0
   -1.1625   -3.0440   -1.4975 C   0  0  0  0  0  0  0  0  0  0  0  0
   -1.5570   -1.8955   -2.4045 C   0  0  0  0  0  0  0  0  0  0  0  0
   -0.7199   -1.6885   -3.5770 C   0  0  0  0  0  0  0  0  0  0  0  0
   -1.7632   -0.6489   -1.5334 C   0  0  0  0  0  0  0  0  0  0  0  0
   -0.5079   -0.3850   -0.9149 O   0  0  0  0  0  0  0  0  0  0  0  0
    0.1282    0.8336   -1.0763 C   0  0  0  0  0  0  0  0  0  0  0  0
   -0.4879    1.6797   -1.8054 O   0  0  0  0  0  0  0  0  0  0  0  0
    1.3998    1.1243   -0.4623 C   0  0  0  0  0  0  0  0  0  0  0  0
    2.0213    2.3307   -0.6365 C   0  0  0  0  0  0  0  0  0  0  0  0
    3.2411    2.6368   -0.0642 C   0  0  0  0  0  0  0  0  0  0  0  0
    3.8634    3.8571   -0.2440 O   0  0  0  0  0  0  0  0  0  0  0  0
    3.8697    1.6624    0.7326 C   0  0  0  0  0  0  0  0  0  0  0  0
    5.0858    1.9950    1.4333 C   0  0  0  0  0  0  0  0  0  0  0  0
    5.2867    3.2701    1.6793 O   0  0  0  0  0  0  0  0  0  0  0  0
    6.1316    1.1417    1.9262 C   0  0  0  0  0  0  0  0  0  0  0  0
    6.6988    1.4587    3.1867 C   0  0  0  0  0  0  0  0  0  0  0  0
    6.1883    2.5476    3.8838 O   0  0  0  0  0  0  0  0  0  0  0  0
    7.7198    0.7467    3.7465 C   0  0  0  0  0  0  0  0  0  0  0  0
    8.2336   -0.3390    3.0591 C   0  0  0  0  0  0  0  0  0  0  0  0
    7.6928   -0.6433    1.8458 C   0  0  0  0  0  0  0  0  0  0  0  0
    6.6552    0.0749    1.2614 C   0  0  0  0  0  0  0  0  0  0  0  0
    6.3427   -0.2608   -0.1353 C   0  0  0  0  0  0  0  0  0  0  0  0
    5.6520    0.4575   -0.8501 O   0  0  0  0  0  0  0  0  0  0  0  0
    6.8396   -1.4327   -0.6824 O   0  0  0  0  0  0  0  0  0  0  0  0
    3.2563    0.4506    0.9163 C   0  0  0  0  0  0  0  0  0  0  0  0
    3.8612   -0.5097    1.7025 O   0  0  0  0  0  0  0  0  0  0  0  0
    2.0192    0.1860    0.3148 C   0  0  0  0  0  0  0  0  0  0  0  0
   -2.7692   -1.1702   -0.5328 C   0  0  0  0  0  0  0  0  0  0  0  0
   -3.7431   -0.1765   -0.1495 N   0  0  0  0  0  0  0  0  0  0  0  0
   -3.8515    0.2959    1.1857 C   0  0  0  0  0  0  0  0  0  0  0  0
   -3.0403   -0.2027    2.0400 O   0  0  0  0  0  0  0  0  0  0  0  0
   -4.8025    1.2896    1.6475 C   0  0  0  0  0  0  0  0  0  0  0  0
   -4.8155    1.6686    2.9709 C   0  0  0  0  0  0  0  0  0  0  0  0
   -5.6889    2.6043    3.4799 C   0  0  0  0  0  0  0  0  0  0  0  0
   -6.6021    3.2031    2.6438 C   0  0  0  0  0  0  0  0  0  0  0  0
   -7.5022    4.1611    3.1454 O   0  0  0  0  0  0  0  0  0  0  0  0
   -6.6111    2.8443    1.3200 C   0  0  0  0  0  0  0  0  0  0  0  0
   -5.7163    1.8924    0.8233 C   0  0  0  0  0  0  0  0  0  0  0  0
   -3.9779   -4.1896   -2.9982 H   0  0  0  0  0  0  0  0  0  0  0  0
   -3.1598   -3.4380   -4.4400 H   0  0  0  0  0  0  0  0  0  0  0  0
   -2.1618   -4.2140   -3.1879 H   0  0  0  0  0  0  0  0  0  0  0  0
   -4.7000   -0.8989   -2.9288 H   0  0  0  0  0  0  0  0  0  0  0  0
   -3.1855   -0.3902   -3.7188 H   0  0  0  0  0  0  0  0  0  0  0  0
   -4.1487   -1.7256   -4.3851 H   0  0  0  0  0  0  0  0  0  0  0  0
   -4.4125   -2.5561   -1.0079 H   0  0  0  0  0  0  0  0  0  0  0  0
   -2.8085   -4.4805   -1.2748 H   0  0  0  0  0  0  0  0  0  0  0  0
   -2.3835   -3.5582    0.2547 H   0  0  0  0  0  0  0  0  0  0  0  0
   -0.5720   -2.5721   -0.6590 H   0  0  0  0  0  0  0  0  0  0  0  0
   -0.5720   -3.8204   -1.9764 H   0  0  0  0  0  0  0  0  0  0  0  0
   -0.8352   -0.6587   -3.9552 H   0  0  0  0  0  0  0  0  0  0  0  0
   -1.0044   -2.4424   -4.3693 H   0  0  0  0  0  0  0  0  0  0  0  0
    0.3416   -1.8572   -3.3669 H   0  0  0  0  0  0  0  0  0  0  0  0
   -2.1236    0.2030   -2.1075 H   0  0  0  0  0  0  0  0  0  0  0  0
    1.5758    3.1248   -1.2471 H   0  0  0  0  0  0  0  0  0  0  0  0
    3.3513    4.7325   -0.3602 H   0  0  0  0  0  0  0  0  0  0  0  0
    6.0677    2.4860    4.8776 H   0  0  0  0  0  0  0  0  0  0  0  0
    8.1492    0.9856    4.7024 H   0  0  0  0  0  0  0  0  0  0  0  0
    9.0526   -0.9342    3.4832 H   0  0  0  0  0  0  0  0  0  0  0  0
    8.1107   -1.5020    1.3186 H   0  0  0  0  0  0  0  0  0  0  0  0
    6.4533   -1.8269   -1.5361 H   0  0  0  0  0  0  0  0  0  0  0  0
    4.0910   -0.3461    2.6804 H   0  0  0  0  0  0  0  0  0  0  0  0
    1.6074   -0.7907    0.5092 H   0  0  0  0  0  0  0  0  0  0  0  0
   -2.1861   -1.4379    0.3792 H   0  0  0  0  0  0  0  0  0  0  0  0
   -4.4061    0.2348   -0.8362 H   0  0  0  0  0  0  0  0  0  0  0  0
   -4.0966    1.2038    3.6509 H   0  0  0  0  0  0  0  0  0  0  0  0
   -5.6742    2.8813    4.5282 H   0  0  0  0  0  0  0  0  0  0  0  0
   -8.4829    3.9084    3.1311 H   0  0  0  0  0  0  0  0  0  0  0  0
   -7.3275    3.3165    0.6695 H   0  0  0  0  0  0  0  0  0  0  0  0
   -5.7248    1.6116   -0.2194 H   0  0  0  0  0  0  0  0  0  0  0  0
  1  2  1  0
  2  3  1  0
  2  4  1  0
  4  5  1  0
  5  6  1  0
  6  7  1  0
  7  8  1  0
  7  9  1  0
  9 10  1  0
 10 11  1  0
 11 12  2  0
 11 13  1  0
 13 14  2  0
 14 15  1  0
 15 16  1  0
 15 17  2  0
 17 18  1  0
 18 19  2  0
 18 20  1  0
 20 21  2  0
 21 22  1  0
 21 23  1  0
 23 24  2  0
 24 25  1  0
 25 26  2  0
 26 27  1  0
 27 28  2  0
 27 29  1  0
 17 30  1  0
 30 31  1  0
 30 32  2  0
  9 33  1  0
 33 34  1  0
 34 35  1  0
 35 36  2  0
 35 37  1  0
 37 38  2  0
 38 39  1  0
 39 40  2  0
 40 41  1  0
 40 42  1  0
 42 43  2  0
  7  2  1  0
 32 13  1  0
 43 37  1  0
 33  4  1  0
 26 20  1  0
  1 44  1  0
  1 45  1  0
  1 46  1  0
  3 47  1  0
  3 48  1  0
  3 49  1  0
  4 50  1  0
  5 51  1  0
  5 52  1  0
  6 53  1  0
  6 54  1  0
  8 55  1  0
  8 56  1  0
  8 57  1  0
  9 58  1  0
 14 59  1  0
 16 60  1  0
 22 61  1  0
 23 62  1  0
 24 63  1  0
 25 64  1  0
 29 65  1  0
 31 66  1  0
 32 67  1  0
 33 68  1  0
 34 69  1  0
 38 70  1  0
 39 71  1  0
 41 72  1  0
 42 73  1  0
 43 74  1  0
M  END
$$$$
