@<TRIPOS>MOLECULE
*****
 74 78 0 0 0
SMALL
GASTEIGER

@<TRIPOS>ATOM
      1 C          -3.0872   -3.6226   -3.3340 C.3     1  UNL1       -0.0589
      2 C          -3.0032   -2.2574   -2.6738 C.3     1  UNL1       -0.0215
      3 C          -3.7871   -1.2734   -3.4230 C.3     1  UNL1       -0.0589
      4 C          -3.3798   -2.3744   -1.1876 C.3     1  UNL1       -0.0133
      5 C          -2.4455   -3.5369   -0.8512 C.3     1  UNL1       -0.0473
      6 C          -1.1625   -3.0440   -1.4975 C.3     1  UNL1       -0.0434
      7 C          -1.5570   -1.8955   -2.4045 C.3     1  UNL1        0.0122
      8 C          -0.7199   -1.6885   -3.5770 C.3     1  UNL1       -0.0556
      9 C          -1.7632   -0.6489   -1.5334 C.3     1  UNL1        0.1277
     10 O          -0.5079   -0.3850   -0.9149 O.3     1  UNL1       -0.4554
     11 C           0.1282    0.8336   -1.0763 C.2     1  UNL1        0.3398
     12 O          -0.4879    1.6797   -1.8054 O.2     1  UNL1       -0.2449
     13 C           1.3998    1.1243   -0.4623 C.ar    1  UNL1        0.0659
     14 C           2.0213    2.3307   -0.6365 C.ar    1  UNL1       -0.0053
     15 C           3.2411    2.6368   -0.0642 C.ar    1  UNL1        0.1320
     16 O           3.8634    3.8571   -0.2440 O.3     1  UNL1       -0.5059
     17 C           3.8697    1.6624    0.7326 C.ar    1  UNL1        0.1050
     18 C           5.0858    1.9950    1.4333 C.2     1  UNL1        0.2044
     19 O           5.2867    3.2701    1.6793 O.2     1  UNL1       -0.2863
     20 C           6.1316    1.1417    1.9262 C.ar    1  UNL1        0.0778
     21 C           6.6988    1.4587    3.1867 C.ar    1  UNL1        0.1285
     22 O           6.1883    2.5476    3.8838 O.3     1  UNL1       -0.5060
     23 C           7.7198    0.7467    3.7465 C.ar    1  UNL1       -0.0194
     24 C           8.2336   -0.3390    3.0591 C.ar    1  UNL1       -0.0575
     25 C           7.6928   -0.6433    1.8458 C.ar    1  UNL1       -0.0468
     26 C           6.6552    0.0749    1.2614 C.ar    1  UNL1        0.0731
     27 C           6.3427   -0.2608   -0.1353 C.2     1  UNL1        0.3376
     28 O           5.6520    0.4575   -0.8501 O.2     1  UNL1       -0.2451
     29 O           6.8396   -1.4327   -0.6824 O.3     1  UNL1       -0.4771
     30 C           3.2563    0.4506    0.9163 C.ar    1  UNL1        0.1320
     31 O           3.8612   -0.5097    1.7025 O.3     1  UNL1       -0.5059
     32 C           2.0192    0.1860    0.3148 C.ar    1  UNL1       -0.0053
     33 C          -2.7692   -1.1702   -0.5328 C.3     1  UNL1        0.0642
     34 N          -3.7431   -0.1765   -0.1495 N.am    1  UNL1       -0.3047
     35 C          -3.8515    0.2959    1.1857 C.2     1  UNL1        0.2444
     36 O          -3.0403   -0.2027    2.0400 O.2     1  UNL1       -0.2702
     37 C          -4.8025    1.2896    1.6475 C.ar    1  UNL1        0.0369
     38 C          -4.8155    1.6686    2.9709 C.ar    1  UNL1       -0.0462
     39 C          -5.6889    2.6043    3.4799 C.ar    1  UNL1       -0.0195
     40 C          -6.6021    3.2031    2.6438 C.ar    1  UNL1        0.1169
     41 O          -7.5022    4.1611    3.1454 O.3     1  UNL1       -0.5068
     42 C          -6.6111    2.8443    1.3200 C.ar    1  UNL1       -0.0195
     43 C          -5.7163    1.8924    0.8233 C.ar    1  UNL1       -0.0462
     44 H          -3.9779   -4.1896   -2.9982 H       1  UNL1        0.0235
     45 H          -3.1598   -3.4380   -4.4400 H       1  UNL1        0.0235
     46 H          -2.1618   -4.2140   -3.1879 H       1  UNL1        0.0235
     47 H          -4.7000   -0.8989   -2.9288 H       1  UNL1        0.0235
     48 H          -3.1855   -0.3902   -3.7188 H       1  UNL1        0.0235
     49 H          -4.1487   -1.7256   -4.3851 H       1  UNL1        0.0235
     50 H          -4.4125   -2.5561   -1.0079 H       1  UNL1        0.0325
     51 H          -2.8085   -4.4805   -1.2748 H       1  UNL1        0.0269
     52 H          -2.3835   -3.5582    0.2547 H       1  UNL1        0.0269
     53 H          -0.5720   -2.5721   -0.6590 H       1  UNL1        0.0272
     54 H          -0.5720   -3.8204   -1.9764 H       1  UNL1        0.0272
     55 H          -0.8352   -0.6587   -3.9552 H       1  UNL1        0.0236
     56 H          -1.0044   -2.4424   -4.3693 H       1  UNL1        0.0236
     57 H           0.3416   -1.8572   -3.3669 H       1  UNL1        0.0236
     58 H          -2.1236    0.2030   -2.1075 H       1  UNL1        0.0758
     59 H           1.5758    3.1248   -1.2471 H       1  UNL1        0.0662
     60 H           3.3513    4.7325   -0.3602 H       1  UNL1        0.2922
     61 H           6.0677    2.4860    4.8776 H       1  UNL1        0.2922
     62 H           8.1492    0.9856    4.7024 H       1  UNL1        0.0654
     63 H           9.0526   -0.9342    3.4832 H       1  UNL1        0.0619
     64 H           8.1107   -1.5020    1.3186 H       1  UNL1        0.0626
     65 H           6.4533   -1.8269   -1.5361 H       1  UNL1        0.2954
     66 H           4.0910   -0.3461    2.6804 H       1  UNL1        0.2922
     67 H           1.6074   -0.7907    0.5092 H       1  UNL1        0.0662
     68 H          -2.1861   -1.4379    0.3792 H       1  UNL1        0.0538
     69 H          -4.4061    0.2348   -0.8362 H       1  UNL1        0.1494
     70 H          -4.0966    1.2038    3.6509 H       1  UNL1        0.0626
     71 H          -5.6742    2.8813    4.5282 H       1  UNL1        0.0654
     72 H          -8.4829    3.9084    3.1311 H       1  UNL1        0.2921
     73 H          -7.3275    3.3165    0.6695 H       1  UNL1        0.0654
     74 H          -5.7248    1.6116   -0.2194 H       1  UNL1        0.0626
@<TRIPOS>BOND
     1     1     2    1
     2     2     3    1
     3     2     4    1
     4     4     5    1
     5     5     6    1
     6     6     7    1
     7     7     8    1
     8     7     9    1
     9     9    10    1
    10    10    11    1
    11    11    12    2
    12    11    13    1
    13    13    14   ar
    14    14    15   ar
    15    15    16    1
    16    15    17   ar
    17    17    18    1
    18    18    19    2
    19    18    20    1
    20    20    21   ar
    21    21    22    1
    22    21    23   ar
    23    23    24   ar
    24    24    25   ar
    25    25    26   ar
    26    26    27    1
    27    27    28    2
    28    27    29    1
    29    17    30   ar
    30    30    31    1
    31    30    32   ar
    32     9    33    1
    33    33    34    1
    34    34    35   am
    35    35    36    2
    36    35    37    1
    37    37    38   ar
    38    38    39   ar
    39    39    40   ar
    40    40    41    1
    41    40    42   ar
    42    42    43   ar
    43     7     2    1
    44    32    13   ar
    45    43    37   ar
    46    33     4    1
    47    26    20   ar
    48     1    44    1
    49     1    45    1
    50     1    46    1
    51     3    47    1
    52     3    48    1
    53     3    49    1
    54     4    50    1
    55     5    51    1
    56     5    52    1
    57     6    53    1
    58     6    54    1
    59     8    55    1
    60     8    56    1
    61     8    57    1
    62     9    58    1
    63    14    59    1
    64    16    60    1
    65    22    61    1
    66    23    62    1
    67    24    63    1
    68    25    64    1
    69    29    65    1
    70    31    66    1
    71    32    67    1
    72    33    68    1
    73    34    69    1
    74    38    70    1
    75    39    71    1
    76    41    72    1
    77    42    73    1
    78    43    74    1
