@<TRIPOS>MOLECULE
*****
 42 45 0 0 0
SMALL
GASTEIGER

@<TRIPOS>ATOM
      1 O          -4.5079   -1.9939   -1.1317 O.3     1  UNL1       -0.3935
      2 C          -4.7169   -0.6276   -1.1690 C.3     1  UNL1        0.0597
      3 C          -4.1513    0.0010    0.0740 C.3     1  UNL1        0.0336
      4 N          -2.7424   -0.2443    0.1719 N.pl3   1  UNL1       -0.3262
      5 C          -2.0338   -1.4482    0.3967 C.ar    1  UNL1        0.1336
      6 N          -2.6642   -2.6133    0.5937 N.ar    1  UNL1       -0.2201
      7 C          -1.9515   -3.7208    0.8241 C.ar    1  UNL1        0.1219
      8 N          -0.6054   -3.7712    0.8777 N.ar    1  UNL1       -0.2005
      9 C           0.0685   -2.6105    0.6827 C.ar    1  UNL1        0.2331
     10 C          -0.6671   -1.4744    0.4461 C.ar    1  UNL1        0.0878
     11 C           0.2603   -0.4706    0.2881 C.ar    1  UNL1        0.0406
     12 C           1.5282   -1.0305    0.4347 C.ar    1  UNL1        0.1460
     13 O           1.3285   -2.3263    0.6709 O.2     1  UNL1       -0.4360
     14 C           2.8737   -0.4705    0.3741 C.ar    1  UNL1        0.0180
     15 C           3.4191    0.4820    1.2100 C.ar    1  UNL1       -0.0511
     16 C           4.7137    0.9251    1.0369 C.ar    1  UNL1       -0.0611
     17 C           5.4926    0.4198    0.0167 C.ar    1  UNL1       -0.0617
     18 C           5.0003   -0.5417   -0.8586 C.ar    1  UNL1       -0.0611
     19 C           3.6879   -0.9622   -0.6491 C.ar    1  UNL1       -0.0511
     20 C           0.1897    0.9360    0.0209 C.ar    1  UNL1       -0.0135
     21 C           0.1873    1.8074    1.1183 C.ar    1  UNL1       -0.0539
     22 C           0.1398    3.1637    1.0590 C.ar    1  UNL1       -0.0612
     23 C           0.0887    3.7701   -0.1718 C.ar    1  UNL1       -0.0617
     24 C           0.0882    2.9679   -1.2891 C.ar    1  UNL1       -0.0612
     25 C           0.1366    1.5965   -1.2159 C.ar    1  UNL1       -0.0539
     26 H          -5.3222   -2.5395   -1.0856 H       1  UNL1        0.2095
     27 H          -5.7943   -0.3885   -1.2920 H       1  UNL1        0.0573
     28 H          -4.1494   -0.2446   -2.0652 H       1  UNL1        0.0573
     29 H          -4.4267    1.0675    0.1765 H       1  UNL1        0.0484
     30 H          -4.7121   -0.4936    0.9321 H       1  UNL1        0.0484
     31 H          -2.2127    0.6402    0.0519 H       1  UNL1        0.1476
     32 H          -2.4247   -4.6944    0.9905 H       1  UNL1        0.1049
     33 H           2.7800    0.8397    1.9802 H       1  UNL1        0.0625
     34 H           5.0798    1.6777    1.7324 H       1  UNL1        0.0618
     35 H           6.5086    0.7642   -0.1232 H       1  UNL1        0.0618
     36 H           5.5874   -0.9531   -1.6637 H       1  UNL1        0.0618
     37 H           3.3177   -1.7195   -1.3479 H       1  UNL1        0.0625
     38 H           0.2273    1.3753    2.1315 H       1  UNL1        0.0624
     39 H           0.1412    3.7686    1.9506 H       1  UNL1        0.0618
     40 H           0.0500    4.8336   -0.2750 H       1  UNL1        0.0618
     41 H           0.0489    3.3937   -2.2918 H       1  UNL1        0.0618
     42 H           0.1389    0.9094   -2.0648 H       1  UNL1        0.0624
@<TRIPOS>BOND
     1     1     2    1
     2     2     3    1
     3     3     4    1
     4     4     5    1
     5     5     6   ar
     6     6     7   ar
     7     7     8   ar
     8     8     9   ar
     9     9    10   ar
    10    10    11   ar
    11    11    12   ar
    12    12    13   ar
    13    12    14    1
    14    14    15   ar
    15    15    16   ar
    16    16    17   ar
    17    17    18   ar
    18    18    19   ar
    19    11    20    1
    20    20    21   ar
    21    21    22   ar
    22    22    23   ar
    23    23    24   ar
    24    24    25   ar
    25    10     5   ar
    26    19    14   ar
    27    25    20   ar
    28    13     9   ar
    29     1    26    1
    30     2    27    1
    31     2    28    1
    32     3    29    1
    33     3    30    1
    34     4    31    1
    35     7    32    1
    36    15    33    1
    37    16    34    1
    38    17    35    1
    39    18    36    1
    40    19    37    1
    41    21    38    1
    42    22    39    1
    43    23    40    1
    44    24    41    1
    45    25    42    1
