@<TRIPOS>MOLECULE
*****
 57 59 0 0 0
SMALL
GASTEIGER

@<TRIPOS>ATOM
      1 C           7.3167   -1.8730    0.0675 C.3     1  UNL1       -0.0524
      2 C           6.8736   -0.4564    0.2192 C.3     1  UNL1       -0.0038
      3 N           5.5289   -0.1618   -0.1070 N.3     1  UNL1       -0.2996
      4 C           5.1370    1.2228    0.0618 C.3     1  UNL1       -0.0038
      5 C           5.7799    2.1586   -0.9155 C.3     1  UNL1       -0.0524
      6 C           5.0473   -0.7106   -1.3559 C.3     1  UNL1        0.0331
      7 C           3.6159   -0.2502   -1.5395 C.3     1  UNL1        0.1022
      8 O           2.7819   -0.6855   -0.4945 O.3     1  UNL1       -0.4907
      9 C           1.4458   -0.3131   -0.5184 C.ar    1  UNL1        0.1206
     10 C           0.7219    0.4458   -1.4058 C.ar    1  UNL1       -0.0194
     11 C          -0.6168    0.6615   -1.1806 C.ar    1  UNL1       -0.0505
     12 C          -1.2360    0.1254   -0.0775 C.ar    1  UNL1       -0.0157
     13 C          -0.5314   -0.6448    0.8353 C.ar    1  UNL1       -0.0505
     14 C           0.8382   -0.8634    0.6007 C.ar    1  UNL1       -0.0194
     15 C          -2.6430    0.3560    0.1897 C.2     1  UNL1        0.0081
     16 C          -3.3145    1.4745    0.0715 C.2     1  UNL1        0.0563
     17 CL         -2.6799    3.0278   -0.4465 Cl      1  UNL1       -0.0823
     18 C          -4.7274    1.6540    0.2967 C.ar    1  UNL1       -0.0061
     19 C          -5.3154    2.6767    1.0092 C.ar    1  UNL1       -0.0532
     20 C          -6.6853    2.7906    1.1618 C.ar    1  UNL1       -0.0612
     21 C          -7.5293    1.8748    0.6011 C.ar    1  UNL1       -0.0617
     22 C          -7.0009    0.8251   -0.1259 C.ar    1  UNL1       -0.0612
     23 C          -5.6329    0.7416   -0.2584 C.ar    1  UNL1       -0.0532
     24 C          -3.3846   -0.8083    0.6821 C.ar    1  UNL1       -0.0159
     25 C          -4.2721   -0.8120    1.7407 C.ar    1  UNL1       -0.0540
     26 C          -4.9581   -1.9358    2.1373 C.ar    1  UNL1       -0.0612
     27 C          -4.7763   -3.1284    1.4712 C.ar    1  UNL1       -0.0617
     28 C          -3.8757   -3.1015    0.4078 C.ar    1  UNL1       -0.0612
     29 C          -3.1683   -1.9990   -0.0223 C.ar    1  UNL1       -0.0540
     30 H           7.7209   -2.0795   -0.9416 H       1  UNL1        0.0242
     31 H           6.5526   -2.6300    0.3332 H       1  UNL1        0.0242
     32 H           8.1568   -2.0319    0.7804 H       1  UNL1        0.0242
     33 H           7.0533   -0.1266    1.2688 H       1  UNL1        0.0424
     34 H           7.5797    0.1775   -0.3908 H       1  UNL1        0.0424
     35 H           4.0522    1.3473    0.0966 H       1  UNL1        0.0424
     36 H           5.5011    1.5234    1.0877 H       1  UNL1        0.0424
     37 H           5.0235    2.9721   -1.1279 H       1  UNL1        0.0242
     38 H           6.6747    2.6861   -0.5256 H       1  UNL1        0.0242
     39 H           5.9737    1.7116   -1.9049 H       1  UNL1        0.0242
     40 H           5.0154   -1.8154   -1.2575 H       1  UNL1        0.0460
     41 H           5.6202   -0.4259   -2.2330 H       1  UNL1        0.0460
     42 H           3.2581   -0.8102   -2.4537 H       1  UNL1        0.0709
     43 H           3.5013    0.8044   -1.7947 H       1  UNL1        0.0709
     44 H           1.3273    0.7961   -2.2112 H       1  UNL1        0.0654
     45 H          -1.1385    1.2627   -1.9035 H       1  UNL1        0.0625
     46 H          -1.0620   -1.0559    1.7062 H       1  UNL1        0.0625
     47 H           1.2738   -1.4855    1.3949 H       1  UNL1        0.0654
     48 H          -4.6402    3.4141    1.4620 H       1  UNL1        0.0624
     49 H          -7.1229    3.6136    1.7336 H       1  UNL1        0.0618
     50 H          -8.6053    1.8928    0.6750 H       1  UNL1        0.0618
     51 H          -7.6335    0.0608   -0.5984 H       1  UNL1        0.0618
     52 H          -5.2587   -0.0995   -0.8474 H       1  UNL1        0.0624
     53 H          -4.4104    0.1374    2.2703 H       1  UNL1        0.0624
     54 H          -5.6483   -1.8978    2.9731 H       1  UNL1        0.0618
     55 H          -5.2805   -4.0649    1.7203 H       1  UNL1        0.0618
     56 H          -3.7357   -4.0579   -0.1211 H       1  UNL1        0.0618
     57 H          -2.4878   -2.1101   -0.8758 H       1  UNL1        0.0624
@<TRIPOS>BOND
     1     1     2    1
     2     2     3    1
     3     3     4    1
     4     4     5    1
     5     3     6    1
     6     6     7    1
     7     7     8    1
     8     8     9    1
     9     9    10   ar
    10    10    11   ar
    11    11    12   ar
    12    12    13   ar
    13    13    14   ar
    14    12    15    1
    15    15    16    2
    16    16    17    1
    17    16    18    1
    18    18    19   ar
    19    19    20   ar
    20    20    21   ar
    21    21    22   ar
    22    22    23   ar
    23    15    24    1
    24    24    25   ar
    25    25    26   ar
    26    26    27   ar
    27    27    28   ar
    28    28    29   ar
    29    14     9   ar
    30    23    18   ar
    31    29    24   ar
    32     1    30    1
    33     1    31    1
    34     1    32    1
    35     2    33    1
    36     2    34    1
    37     4    35    1
    38     4    36    1
    39     5    37    1
    40     5    38    1
    41     5    39    1
    42     6    40    1
    43     6    41    1
    44     7    42    1
    45     7    43    1
    46    10    44    1
    47    11    45    1
    48    13    46    1
    49    14    47    1
    50    19    48    1
    51    20    49    1
    52    21    50    1
    53    22    51    1
    54    23    52    1
    55    25    53    1
    56    26    54    1
    57    27    55    1
    58    28    56    1
    59    29    57    1
