
     RDKit          3D

 22 22  0  0  0  0  0  0  0  0999 V2000
    3.4942    0.6684   -0.5307 N   0  0  0  0  0  0  0  0  0  0  0  0
    3.0495   -0.2306    0.4339 N   0  0  0  0  0  0  0  0  0  0  0  0
    1.6393   -0.0755    0.7220 C   0  0  0  0  0  0  0  0  0  0  0  0
    0.8348   -0.3053   -0.5254 C   0  0  0  0  0  0  0  0  0  0  0  0
   -0.6130   -0.1489   -0.2423 C   0  0  0  0  0  0  0  0  0  0  0  0
   -1.3688   -1.2278    0.1510 C   0  0  0  0  0  0  0  0  0  0  0  0
   -2.7160   -1.0804    0.4141 C   0  0  0  0  0  0  0  0  0  0  0  0
   -3.3300    0.1497    0.2881 C   0  0  0  0  0  0  0  0  0  0  0  0
   -2.5640    1.2497   -0.1118 C   0  0  0  0  0  0  0  0  0  0  0  0
   -1.2175    1.1032   -0.3750 C   0  0  0  0  0  0  0  0  0  0  0  0
    2.9748    1.5508   -0.5628 H   0  0  0  0  0  0  0  0  0  0  0  0
    3.7831    0.2644   -1.4244 H   0  0  0  0  0  0  0  0  0  0  0  0
    3.2444   -1.1881    0.0565 H   0  0  0  0  0  0  0  0  0  0  0  0
    1.4713    0.8825    1.2157 H   0  0  0  0  0  0  0  0  0  0  0  0
    1.4000   -0.8860    1.4638 H   0  0  0  0  0  0  0  0  0  0  0  0
    1.1833    0.3683   -1.3185 H   0  0  0  0  0  0  0  0  0  0  0  0
    1.0628   -1.3505   -0.8589 H   0  0  0  0  0  0  0  0  0  0  0  0
   -0.8986   -2.1841    0.2505 H   0  0  0  0  0  0  0  0  0  0  0  0
   -3.3072   -1.9421    0.7255 H   0  0  0  0  0  0  0  0  0  0  0  0
   -4.3851    0.2010    0.5077 H   0  0  0  0  0  0  0  0  0  0  0  0
   -3.0939    2.2026   -0.1976 H   0  0  0  0  0  0  0  0  0  0  0  0
   -0.6433    1.9786   -0.6855 H   0  0  0  0  0  0  0  0  0  0  0  0
  1  2  1  0
  2  3  1  0
  3  4  1  0
  4  5  1  0
  5  6  2  0
  6  7  1  0
  7  8  2  0
  8  9  1  0
  9 10  2  0
 10  5  1  0
  1 11  1  0
  1 12  1  0
  2 13  1  0
  3 14  1  0
  3 15  1  0
  4 16  1  0
  4 17  1  0
  6 18  1  0
  7 19  1  0
  8 20  1  0
  9 21  1  0
 10 22  1  0
M  END
$$$$
