@<TRIPOS>MOLECULE
*****
 54 56 0 0 0
SMALL
GASTEIGER

@<TRIPOS>ATOM
      1 C          -1.7445    1.5099    0.3042 C.3     1  UNL1       -0.0065
      2 C          -2.0453    0.1941   -0.3046 C.3     1  UNL1       -0.0049
      3 C          -3.4272   -0.2315   -0.3801 C.ar    1  UNL1        0.0440
      4 N          -3.5357   -1.4898   -0.9022 N.ar    1  UNL1       -0.2373
      5 C          -4.6884   -2.1157   -1.1121 C.ar    1  UNL1        0.1167
      6 N          -4.8208   -3.4232   -1.6537 N.pl3   1  UNL1       -0.3431
      7 C          -5.8736   -1.5015   -0.8009 C.ar    1  UNL1       -0.0192
      8 C          -5.8578   -0.2357   -0.2721 C.ar    1  UNL1       -0.0455
      9 C          -7.0836    0.5152    0.0959 C.3     1  UNL1       -0.0395
     10 C          -4.6325    0.3373   -0.0883 C.ar    1  UNL1       -0.0373
     11 C          -2.1541    1.5025    1.7480 C.3     1  UNL1        0.0006
     12 N          -1.1355    0.6377    2.3435 N.3     1  UNL1       -0.3142
     13 C           0.0946    0.8644    1.5901 C.3     1  UNL1        0.0116
     14 C          -0.2407    1.7595    0.4334 C.3     1  UNL1        0.0245
     15 N           0.4454    1.5855   -0.7707 N.3     1  UNL1       -0.3105
     16 C           1.8138    1.8383   -0.9053 C.3     1  UNL1        0.0087
     17 C           2.6671    0.8315   -0.1949 C.3     1  UNL1        0.0087
     18 N           2.4605   -0.5222   -0.6744 N.3     1  UNL1       -0.3108
     19 C           3.3276   -1.4196    0.0640 C.3     1  UNL1        0.0213
     20 C           4.7552   -1.1167   -0.0819 C.ar    1  UNL1       -0.0335
     21 C           5.4815   -0.2755    0.7319 C.ar    1  UNL1       -0.0560
     22 C           6.8227    0.0147    0.6004 C.ar    1  UNL1       -0.0431
     23 C           7.5007   -0.5924   -0.4413 C.ar    1  UNL1        0.0410
     24 CL          9.2089   -0.2019   -0.5817 Cl      1  UNL1       -0.0835
     25 C           6.8286   -1.4580   -1.3073 C.ar    1  UNL1       -0.0431
     26 C           5.4880   -1.6999   -1.1133 C.ar    1  UNL1       -0.0560
     27 H          -2.2132    2.3641   -0.2435 H       1  UNL1        0.0332
     28 H          -1.4798   -0.6263    0.2458 H       1  UNL1        0.0332
     29 H          -1.6188    0.0939   -1.3469 H       1  UNL1        0.0332
     30 H          -5.1029   -4.3324   -1.2246 H       1  UNL1        0.1437
     31 H          -4.5991   -3.5288   -2.6831 H       1  UNL1        0.1437
     32 H          -6.8397   -1.9679   -0.9521 H       1  UNL1        0.0654
     33 H          -7.6879    0.7410   -0.8103 H       1  UNL1        0.0278
     34 H          -6.8097    1.4489    0.6138 H       1  UNL1        0.0278
     35 H          -7.7481   -0.0550    0.7668 H       1  UNL1        0.0278
     36 H          -4.6016    1.3356    0.2957 H       1  UNL1        0.0638
     37 H          -3.1553    1.1494    1.9810 H       1  UNL1        0.0427
     38 H          -1.9495    2.5184    2.1725 H       1  UNL1        0.0427
     39 H          -0.9343    0.8670    3.3371 H       1  UNL1        0.1220
     40 H           0.4769   -0.0952    1.2034 H       1  UNL1        0.0439
     41 H           0.8290    1.4165    2.2278 H       1  UNL1        0.0439
     42 H          -0.1698    2.8251    0.8100 H       1  UNL1        0.0476
     43 H          -0.1199    1.6334   -1.6441 H       1  UNL1        0.1223
     44 H           2.1354    1.9388   -1.9914 H       1  UNL1        0.0437
     45 H           2.0789    2.8554   -0.4586 H       1  UNL1        0.0437
     46 H           3.7646    1.0376   -0.4308 H       1  UNL1        0.0437
     47 H           2.6353    0.8601    0.8987 H       1  UNL1        0.0437
     48 H           2.6161   -0.5738   -1.6977 H       1  UNL1        0.1223
     49 H           3.1617   -2.4718   -0.2368 H       1  UNL1        0.0473
     50 H           3.0345   -1.3605    1.1477 H       1  UNL1        0.0473
     51 H           4.9074    0.1833    1.5424 H       1  UNL1        0.0621
     52 H           7.2661    0.7008    1.3209 H       1  UNL1        0.0632
     53 H           7.4311   -1.8861   -2.0892 H       1  UNL1        0.0632
     54 H           5.0378   -2.3786   -1.8206 H       1  UNL1        0.0621
@<TRIPOS>BOND
     1     1     2    1
     2     2     3    1
     3     3     4   ar
     4     4     5   ar
     5     5     6    1
     6     5     7   ar
     7     7     8   ar
     8     8     9    1
     9     8    10   ar
    10     1    11    1
    11    11    12    1
    12    12    13    1
    13    13    14    1
    14    14    15    1
    15    15    16    1
    16    16    17    1
    17    17    18    1
    18    18    19    1
    19    19    20    1
    20    20    21   ar
    21    21    22   ar
    22    22    23   ar
    23    23    24    1
    24    23    25   ar
    25    25    26   ar
    26    14     1    1
    27    26    20   ar
    28    10     3   ar
    29     1    27    1
    30     2    28    1
    31     2    29    1
    32     6    30    1
    33     6    31    1
    34     7    32    1
    35     9    33    1
    36     9    34    1
    37     9    35    1
    38    10    36    1
    39    11    37    1
    40    11    38    1
    41    12    39    1
    42    13    40    1
    43    13    41    1
    44    14    42    1
    45    15    43    1
    46    16    44    1
    47    16    45    1
    48    17    46    1
    49    17    47    1
    50    18    48    1
    51    19    49    1
    52    19    50    1
    53    21    51    1
    54    22    52    1
    55    25    53    1
    56    26    54    1
