
     RDKit          3D

 41 43  0  0  0  0  0  0  0  0999 V2000
   -3.9808    2.2413   -1.9857 C   0  0  0  0  0  0  0  0  0  0  0  0
   -3.5463    1.2820   -1.0960 O   0  0  0  0  0  0  0  0  0  0  0  0
   -3.4263    0.0647   -1.7550 C   0  0  0  0  0  0  0  0  0  0  0  0
   -2.9434   -1.0093   -0.7735 C   0  0  2  0  0  0  0  0  0  0  0  0
   -3.8991   -1.0506    0.4104 C   0  0  0  0  0  0  0  0  0  0  0  0
   -2.9174   -1.1878    1.5594 C   0  0  0  0  0  0  0  0  0  0  0  0
   -1.8337   -0.2091    1.1142 C   0  0  0  0  0  0  0  0  0  0  0  0
   -1.6771   -0.5882   -0.2725 N   0  0  0  0  0  0  0  0  0  0  0  0
   -0.4103   -1.6961   -0.5068 S   0  0  0  0  0  6  0  0  0  0  0  0
   -0.5971   -2.9124    0.3904 O   0  0  0  0  0  0  0  0  0  0  0  0
   -0.3295   -2.2208   -1.8995 O   0  0  0  0  0  0  0  0  0  0  0  0
    1.1054   -0.9580   -0.0080 C   0  0  0  0  0  0  0  0  0  0  0  0
    1.5643   -1.1176    1.2740 C   0  0  0  0  0  0  0  0  0  0  0  0
    2.7301   -0.5551    1.6831 C   0  0  0  0  0  0  0  0  0  0  0  0
    3.4829    0.1940    0.8112 C   0  0  0  0  0  0  0  0  0  0  0  0
    3.0278    0.3602   -0.4841 C   0  0  0  0  0  0  0  0  0  0  0  0
    1.8471   -0.2120   -0.8907 C   0  0  0  0  0  0  0  0  0  0  0  0
    4.0274    1.1975   -1.1785 C   0  0  0  0  0  0  0  0  0  0  0  0
    3.9627    1.5640   -2.3720 O   0  0  0  0  0  0  0  0  0  0  0  0
    5.0908    1.5156   -0.2317 C   0  0  0  0  0  0  0  0  0  0  0  0
    6.1309    2.2008   -0.4066 O   0  0  0  0  0  0  0  0  0  0  0  0
    4.7217    0.8801    0.9855 N   0  0  0  0  0  0  0  0  0  0  0  0
    5.4721    0.9161    2.2083 C   0  0  0  0  0  0  0  0  0  0  0  0
   -3.2080    2.3012   -2.8010 H   0  0  0  0  0  0  0  0  0  0  0  0
   -4.9331    1.9305   -2.4420 H   0  0  0  0  0  0  0  0  0  0  0  0
   -4.0640    3.1993   -1.4320 H   0  0  0  0  0  0  0  0  0  0  0  0
   -4.3823   -0.2252   -2.2267 H   0  0  0  0  0  0  0  0  0  0  0  0
   -2.6424    0.2037   -2.5341 H   0  0  0  0  0  0  0  0  0  0  0  0
   -2.9466   -1.9914   -1.2494 H   0  0  0  0  0  0  0  0  0  0  0  0
   -4.3866   -0.0577    0.5288 H   0  0  0  0  0  0  0  0  0  0  0  0
   -4.6080   -1.8793    0.3451 H   0  0  0  0  0  0  0  0  0  0  0  0
   -3.3662   -0.8746    2.5240 H   0  0  0  0  0  0  0  0  0  0  0  0
   -2.4471   -2.1808    1.6087 H   0  0  0  0  0  0  0  0  0  0  0  0
   -0.9297   -0.2953    1.7129 H   0  0  0  0  0  0  0  0  0  0  0  0
   -2.2549    0.8378    1.1259 H   0  0  0  0  0  0  0  0  0  0  0  0
    0.9690   -1.7179    1.9787 H   0  0  0  0  0  0  0  0  0  0  0  0
    3.0743   -0.6929    2.6984 H   0  0  0  0  0  0  0  0  0  0  0  0
    1.5031   -0.0738   -1.9069 H   0  0  0  0  0  0  0  0  0  0  0  0
    6.5644    0.8628    2.0217 H   0  0  0  0  0  0  0  0  0  0  0  0
    5.1960    0.0812    2.8556 H   0  0  0  0  0  0  0  0  0  0  0  0
    5.2596    1.8728    2.7502 H   0  0  0  0  0  0  0  0  0  0  0  0
  1  2  1  0
  2  3  1  0
  3  4  1  0
  4  5  1  0
  5  6  1  0
  6  7  1  0
  7  8  1  0
  8  9  1  0
  9 10  2  0
  9 11  2  0
  9 12  1  0
 12 13  2  0
 13 14  1  0
 14 15  2  0
 15 16  1  0
 16 17  2  0
 16 18  1  0
 18 19  2  0
 18 20  1  0
 20 21  2  0
 20 22  1  0
 22 23  1  0
  8  4  1  0
 17 12  1  0
 22 15  1  0
  1 24  1  0
  1 25  1  0
  1 26  1  0
  3 27  1  0
  3 28  1  0
  4 29  1  6
  5 30  1  0
  5 31  1  0
  6 32  1  0
  6 33  1  0
  7 34  1  0
  7 35  1  0
 13 36  1  0
 14 37  1  0
 17 38  1  0
 23 39  1  0
 23 40  1  0
 23 41  1  0
M  END
$$$$
