@<TRIPOS>MOLECULE
*****
 41 43 0 0 0
SMALL
GASTEIGER

@<TRIPOS>ATOM
      1 C          -3.9808    2.2413   -1.9857 C.3     1  UNL1        0.0365
      2 O          -3.5463    1.2820   -1.0960 O.3     1  UNL1       -0.3814
      3 C          -3.4263    0.0647   -1.7550 C.3     1  UNL1        0.0645
      4 C          -2.9434   -1.0093   -0.7735 C.3     1  UNL1        0.0552
      5 C          -3.8991   -1.0506    0.4104 C.3     1  UNL1       -0.0323
      6 C          -2.9174   -1.1878    1.5594 C.3     1  UNL1       -0.0370
      7 C          -1.8337   -0.2091    1.1142 C.3     1  UNL1        0.0209
      8 N          -1.6771   -0.5882   -0.2725 N.3     1  UNL1       -0.1713
      9 S          -0.4103   -1.6961   -0.5068 S.O2    1  UNL1        0.0612
     10 O          -0.5971   -2.9124    0.3904 O.2     1  UNL1       -0.1528
     11 O          -0.3295   -2.2208   -1.8995 O.2     1  UNL1       -0.1528
     12 C           1.1054   -0.9580   -0.0080 C.ar    1  UNL1        0.1063
     13 C           1.5643   -1.1176    1.2740 C.ar    1  UNL1       -0.0335
     14 C           2.7301   -0.5551    1.6831 C.ar    1  UNL1       -0.0377
     15 C           3.4829    0.1940    0.8112 C.ar    1  UNL1        0.0474
     16 C           3.0278    0.3602   -0.4841 C.ar    1  UNL1        0.0501
     17 C           1.8471   -0.2120   -0.8907 C.ar    1  UNL1       -0.0226
     18 C           4.0274    1.1975   -1.1785 C.2     1  UNL1        0.2496
     19 O           3.9627    1.5640   -2.3720 O.2     1  UNL1       -0.2817
     20 C           5.0908    1.5156   -0.2317 C.2     1  UNL1        0.2910
     21 O           6.1309    2.2008   -0.4066 O.2     1  UNL1       -0.2661
     22 N           4.7217    0.8801    0.9855 N.am    1  UNL1       -0.2672
     23 C           5.4721    0.9161    2.2083 C.3     1  UNL1        0.0087
     24 H          -3.2080    2.3012   -2.8010 H       1  UNL1        0.0523
     25 H          -4.9331    1.9305   -2.4420 H       1  UNL1        0.0523
     26 H          -4.0640    3.1993   -1.4320 H       1  UNL1        0.0523
     27 H          -4.3823   -0.2252   -2.2267 H       1  UNL1        0.0576
     28 H          -2.6424    0.2037   -2.5341 H       1  UNL1        0.0576
     29 H          -2.9466   -1.9914   -1.2494 H       1  UNL1        0.0502
     30 H          -4.3866   -0.0577    0.5288 H       1  UNL1        0.0282
     31 H          -4.6080   -1.8793    0.3451 H       1  UNL1        0.0282
     32 H          -3.3662   -0.8746    2.5240 H       1  UNL1        0.0279
     33 H          -2.4471   -2.1808    1.6087 H       1  UNL1        0.0279
     34 H          -0.9297   -0.2953    1.7129 H       1  UNL1        0.0444
     35 H          -2.2549    0.8378    1.1259 H       1  UNL1        0.0444
     36 H           0.9690   -1.7179    1.9787 H       1  UNL1        0.0638
     37 H           3.0743   -0.6929    2.6984 H       1  UNL1        0.0637
     38 H           1.5031   -0.0738   -1.9069 H       1  UNL1        0.0645
     39 H           6.5644    0.8628    2.0217 H       1  UNL1        0.0433
     40 H           5.1960    0.0812    2.8556 H       1  UNL1        0.0433
     41 H           5.2596    1.8728    2.7502 H       1  UNL1        0.0433
@<TRIPOS>BOND
     1     1     2    1
     2     2     3    1
     3     3     4    1
     4     4     5    1
     5     5     6    1
     6     6     7    1
     7     7     8    1
     8     8     9    1
     9     9    10    2
    10     9    11    2
    11     9    12    1
    12    12    13   ar
    13    13    14   ar
    14    14    15   ar
    15    15    16   ar
    16    16    17   ar
    17    16    18    1
    18    18    19    2
    19    18    20    1
    20    20    21    2
    21    20    22   am
    22    22    23    1
    23     8     4    1
    24    17    12   ar
    25    22    15    1
    26     1    24    1
    27     1    25    1
    28     1    26    1
    29     3    27    1
    30     3    28    1
    31     4    29    1
    32     5    30    1
    33     5    31    1
    34     6    32    1
    35     6    33    1
    36     7    34    1
    37     7    35    1
    38    13    36    1
    39    14    37    1
    40    17    38    1
    41    23    39    1
    42    23    40    1
    43    23    41    1
