
     RDKit          3D

 64 67  0  0  0  0  0  0  0  0999 V2000
    8.8044    2.0637   -1.4815 C   0  0  0  0  0  0  0  0  0  0  0  0
    7.5756    1.3984   -0.9841 C   0  0  0  0  0  0  0  0  0  0  0  0
    6.9314    1.9635    0.0514 N   0  0  0  0  0  0  0  0  0  0  0  0
    5.8020    1.3424    0.5002 C   0  0  0  0  0  0  0  0  0  0  0  0
    5.3482    0.1964   -0.0801 C   0  0  0  0  0  0  0  0  0  0  0  0
    4.1466   -0.4436    0.4138 C   0  0  0  0  0  0  0  0  0  0  0  0
    3.1646    0.3865    0.9372 C   0  0  0  0  0  0  0  0  0  0  0  0
    2.0074   -0.1810    1.4163 C   0  0  0  0  0  0  0  0  0  0  0  0
    1.8360   -1.5651    1.3713 C   0  0  0  0  0  0  0  0  0  0  0  0
    0.5523   -2.0794    1.9113 C   0  0  2  0  0  0  0  0  0  0  0  0
    0.4026   -3.5085    1.4547 C   0  0  0  0  0  0  0  0  0  0  0  0
   -0.5056   -1.2330    1.4020 N   0  0  0  0  0  0  0  0  0  0  0  0
   -1.3707   -0.5164    2.3228 C   0  0  0  0  0  0  0  0  0  0  0  0
   -2.7672   -0.5912    1.7482 C   0  0  0  0  0  0  0  0  0  0  0  0
   -2.8167    0.1606    0.4123 C   0  0  2  0  0  0  0  0  0  0  0  0
   -3.0234    1.5947    0.7096 C   0  0  0  0  0  0  0  0  0  0  0  0
   -3.0756    2.5373   -0.4319 C   0  0  0  0  0  0  0  0  0  0  0  0
   -1.8072    2.5393   -1.2612 C   0  0  0  0  0  0  0  0  0  0  0  0
   -4.2670    2.4434   -1.3361 C   0  0  0  0  0  0  0  0  0  0  0  0
   -3.1376    3.8427    0.1317 O   0  0  0  0  0  0  0  0  0  0  0  0
   -3.9620   -0.5017   -0.3121 C   0  0  0  0  0  0  0  0  0  0  0  0
   -3.7310   -1.4436   -1.2874 C   0  0  0  0  0  0  0  0  0  0  0  0
   -4.7440   -2.0920   -1.9465 C   0  0  0  0  0  0  0  0  0  0  0  0
   -6.0479   -1.8006   -1.6318 C   0  0  0  0  0  0  0  0  0  0  0  0
   -6.2840   -0.8581   -0.6555 C   0  0  0  0  0  0  0  0  0  0  0  0
   -5.2622   -0.2012    0.0122 C   0  0  0  0  0  0  0  0  0  0  0  0
   -1.6635   -0.0977   -0.3550 O   0  0  0  0  0  0  0  0  0  0  0  0
   -0.7523   -1.0602    0.0185 C   0  0  0  0  0  0  0  0  0  0  0  0
   -0.1176   -1.8020   -0.7715 O   0  0  0  0  0  0  0  0  0  0  0  0
    2.8151   -2.3721    0.8513 C   0  0  0  0  0  0  0  0  0  0  0  0
    3.9634   -1.8109    0.3758 C   0  0  0  0  0  0  0  0  0  0  0  0
    6.0224   -0.3588   -1.1333 C   0  0  0  0  0  0  0  0  0  0  0  0
    7.1489    0.2674   -1.5750 N   0  0  0  0  0  0  0  0  0  0  0  0
    8.5184    3.0179   -1.9693 H   0  0  0  0  0  0  0  0  0  0  0  0
    9.4937    2.2737   -0.6390 H   0  0  0  0  0  0  0  0  0  0  0  0
    9.3226    1.4421   -2.2390 H   0  0  0  0  0  0  0  0  0  0  0  0
    5.2893    1.8135    1.3430 H   0  0  0  0  0  0  0  0  0  0  0  0
    3.3187    1.4720    0.9645 H   0  0  0  0  0  0  0  0  0  0  0  0
    1.2329    0.4719    1.8299 H   0  0  0  0  0  0  0  0  0  0  0  0
    0.5901   -2.0804    3.0109 H   0  0  0  0  0  0  0  0  0  0  0  0
    0.6715   -3.6511    0.4084 H   0  0  0  0  0  0  0  0  0  0  0  0
   -0.6136   -3.9204    1.6993 H   0  0  0  0  0  0  0  0  0  0  0  0
    1.1170   -4.1188    2.0592 H   0  0  0  0  0  0  0  0  0  0  0  0
   -1.0873    0.5535    2.3932 H   0  0  0  0  0  0  0  0  0  0  0  0
   -1.3383   -0.9553    3.3404 H   0  0  0  0  0  0  0  0  0  0  0  0
   -3.4588   -0.1598    2.4750 H   0  0  0  0  0  0  0  0  0  0  0  0
   -3.0350   -1.6515    1.6089 H   0  0  0  0  0  0  0  0  0  0  0  0
   -3.9828    1.7109    1.2772 H   0  0  0  0  0  0  0  0  0  0  0  0
   -2.2103    1.9042    1.4110 H   0  0  0  0  0  0  0  0  0  0  0  0
   -1.7547    3.5266   -1.7607 H   0  0  0  0  0  0  0  0  0  0  0  0
   -1.8548    1.7740   -2.0376 H   0  0  0  0  0  0  0  0  0  0  0  0
   -0.9399    2.4227   -0.5780 H   0  0  0  0  0  0  0  0  0  0  0  0
   -5.1907    2.5401   -0.7632 H   0  0  0  0  0  0  0  0  0  0  0  0
   -4.2140    3.3274   -2.0393 H   0  0  0  0  0  0  0  0  0  0  0  0
   -4.2386    1.5496   -1.9895 H   0  0  0  0  0  0  0  0  0  0  0  0
   -3.0232    4.5321   -0.5707 H   0  0  0  0  0  0  0  0  0  0  0  0
   -2.7283   -1.7141   -1.5784 H   0  0  0  0  0  0  0  0  0  0  0  0
   -4.5140   -2.8392   -2.7199 H   0  0  0  0  0  0  0  0  0  0  0  0
   -6.8837   -2.3014   -2.1414 H   0  0  0  0  0  0  0  0  0  0  0  0
   -7.2947   -0.5959   -0.3730 H   0  0  0  0  0  0  0  0  0  0  0  0
   -5.5135    0.5412    0.7845 H   0  0  0  0  0  0  0  0  0  0  0  0
    2.6500   -3.4314    0.8328 H   0  0  0  0  0  0  0  0  0  0  0  0
    4.7600   -2.4086   -0.0424 H   0  0  0  0  0  0  0  0  0  0  0  0
    5.7260   -1.2647   -1.6454 H   0  0  0  0  0  0  0  0  0  0  0  0
  1  2  1  0
  2  3  2  0
  3  4  1  0
  4  5  2  0
  5  6  1  0
  6  7  2  0
  7  8  1  0
  8  9  2  0
  9 10  1  0
 10 11  1  0
 10 12  1  0
 12 13  1  0
 13 14  1  0
 14 15  1  0
 15 16  1  1
 16 17  1  0
 17 18  1  0
 17 19  1  0
 17 20  1  0
 15 21  1  0
 21 22  2  0
 22 23  1  0
 23 24  2  0
 24 25  1  0
 25 26  2  0
 15 27  1  0
 27 28  1  0
 28 29  2  0
  9 30  1  0
 30 31  2  0
  5 32  1  0
 32 33  2  0
 33  2  1  0
 31  6  1  0
 28 12  1  0
 26 21  1  0
  1 34  1  0
  1 35  1  0
  1 36  1  0
  4 37  1  0
  7 38  1  0
  8 39  1  0
 10 40  1  1
 11 41  1  0
 11 42  1  0
 11 43  1  0
 13 44  1  0
 13 45  1  0
 14 46  1  0
 14 47  1  0
 16 48  1  0
 16 49  1  0
 18 50  1  0
 18 51  1  0
 18 52  1  0
 19 53  1  0
 19 54  1  0
 19 55  1  0
 20 56  1  0
 22 57  1  0
 23 58  1  0
 24 59  1  0
 25 60  1  0
 26 61  1  0
 30 62  1  0
 31 63  1  0
 32 64  1  0
M  END
$$$$
