@<TRIPOS>MOLECULE
*****
 64 67 0 0 0
SMALL
GASTEIGER

@<TRIPOS>ATOM
      1 C           8.8044    2.0637   -1.4815 C.3     1  UNL1       -0.0046
      2 C           7.5756    1.3984   -0.9841 C.ar    1  UNL1        0.1259
      3 N           6.9314    1.9635    0.0514 N.ar    1  UNL1       -0.2400
      4 C           5.8020    1.3424    0.5002 C.ar    1  UNL1        0.0388
      5 C           5.3482    0.1964   -0.0801 C.ar    1  UNL1        0.0184
      6 C           4.1466   -0.4436    0.4138 C.ar    1  UNL1       -0.0150
      7 C           3.1646    0.3865    0.9372 C.ar    1  UNL1       -0.0536
      8 C           2.0074   -0.1810    1.4163 C.ar    1  UNL1       -0.0562
      9 C           1.8360   -1.5651    1.3713 C.ar    1  UNL1       -0.0271
     10 C           0.5523   -2.0794    1.9113 C.3     1  UNL1        0.0515
     11 C           0.4026   -3.5085    1.4547 C.3     1  UNL1       -0.0421
     12 N          -0.5056   -1.2330    1.4020 N.am    1  UNL1       -0.2605
     13 C          -1.3707   -0.5164    2.3228 C.3     1  UNL1        0.0224
     14 C          -2.7672   -0.5912    1.7482 C.3     1  UNL1        0.0076
     15 C          -2.8167    0.1606    0.4123 C.3     1  UNL1        0.1440
     16 C          -3.0234    1.5947    0.7096 C.3     1  UNL1        0.0199
     17 C          -3.0756    2.5373   -0.4319 C.3     1  UNL1        0.0645
     18 C          -1.8072    2.5393   -1.2612 C.3     1  UNL1       -0.0362
     19 C          -4.2670    2.4434   -1.3361 C.3     1  UNL1       -0.0362
     20 O          -3.1376    3.8427    0.1317 O.3     1  UNL1       -0.3890
     21 C          -3.9620   -0.5017   -0.3121 C.ar    1  UNL1       -0.0040
     22 C          -3.7310   -1.4436   -1.2874 C.ar    1  UNL1       -0.0548
     23 C          -4.7440   -2.0920   -1.9465 C.ar    1  UNL1       -0.0614
     24 C          -6.0479   -1.8006   -1.6318 C.ar    1  UNL1       -0.0617
     25 C          -6.2840   -0.8581   -0.6555 C.ar    1  UNL1       -0.0614
     26 C          -5.2622   -0.2012    0.0122 C.ar    1  UNL1       -0.0548
     27 O          -1.6635   -0.0977   -0.3550 O.3     1  UNL1       -0.4387
     28 C          -0.7523   -1.0602    0.0185 C.2     1  UNL1        0.4042
     29 O          -0.1176   -1.8020   -0.7715 O.2     1  UNL1       -0.2262
     30 C           2.8151   -2.3721    0.8513 C.ar    1  UNL1       -0.0562
     31 C           3.9634   -1.8109    0.3758 C.ar    1  UNL1       -0.0536
     32 C           6.0224   -0.3588   -1.1333 C.ar    1  UNL1        0.0388
     33 N           7.1489    0.2674   -1.5750 N.ar    1  UNL1       -0.2400
     34 H           8.5184    3.0179   -1.9693 H       1  UNL1        0.0308
     35 H           9.4937    2.2737   -0.6390 H       1  UNL1        0.0308
     36 H           9.3226    1.4421   -2.2390 H       1  UNL1        0.0308
     37 H           5.2893    1.8135    1.3430 H       1  UNL1        0.0837
     38 H           3.3187    1.4720    0.9645 H       1  UNL1        0.0624
     39 H           1.2329    0.4719    1.8299 H       1  UNL1        0.0621
     40 H           0.5901   -2.0804    3.0109 H       1  UNL1        0.0549
     41 H           0.6715   -3.6511    0.4084 H       1  UNL1        0.0251
     42 H          -0.6136   -3.9204    1.6993 H       1  UNL1        0.0251
     43 H           1.1170   -4.1188    2.0592 H       1  UNL1        0.0251
     44 H          -1.0873    0.5535    2.3932 H       1  UNL1        0.0467
     45 H          -1.3383   -0.9553    3.3404 H       1  UNL1        0.0467
     46 H          -3.4588   -0.1598    2.4750 H       1  UNL1        0.0322
     47 H          -3.0350   -1.6515    1.6089 H       1  UNL1        0.0322
     48 H          -3.9828    1.7109    1.2772 H       1  UNL1        0.0335
     49 H          -2.2103    1.9042    1.4110 H       1  UNL1        0.0335
     50 H          -1.7547    3.5266   -1.7607 H       1  UNL1        0.0257
     51 H          -1.8548    1.7740   -2.0376 H       1  UNL1        0.0257
     52 H          -0.9399    2.4227   -0.5780 H       1  UNL1        0.0257
     53 H          -5.1907    2.5401   -0.7632 H       1  UNL1        0.0257
     54 H          -4.2140    3.3274   -2.0393 H       1  UNL1        0.0257
     55 H          -4.2386    1.5496   -1.9895 H       1  UNL1        0.0257
     56 H          -3.0232    4.5321   -0.5707 H       1  UNL1        0.2101
     57 H          -2.7283   -1.7141   -1.5784 H       1  UNL1        0.0622
     58 H          -4.5140   -2.8392   -2.7199 H       1  UNL1        0.0618
     59 H          -6.8837   -2.3014   -2.1414 H       1  UNL1        0.0618
     60 H          -7.2947   -0.5959   -0.3730 H       1  UNL1        0.0618
     61 H          -5.5135    0.5412    0.7845 H       1  UNL1        0.0622
     62 H           2.6500   -3.4314    0.8328 H       1  UNL1        0.0621
     63 H           4.7600   -2.4086   -0.0424 H       1  UNL1        0.0624
     64 H           5.7260   -1.2647   -1.6454 H       1  UNL1        0.0837
@<TRIPOS>BOND
     1     1     2    1
     2     2     3   ar
     3     3     4   ar
     4     4     5   ar
     5     5     6    1
     6     6     7   ar
     7     7     8   ar
     8     8     9   ar
     9     9    10    1
    10    10    11    1
    11    10    12    1
    12    12    13    1
    13    13    14    1
    14    14    15    1
    15    15    16    1
    16    16    17    1
    17    17    18    1
    18    17    19    1
    19    17    20    1
    20    15    21    1
    21    21    22   ar
    22    22    23   ar
    23    23    24   ar
    24    24    25   ar
    25    25    26   ar
    26    15    27    1
    27    27    28    1
    28    28    29    2
    29     9    30   ar
    30    30    31   ar
    31     5    32   ar
    32    32    33   ar
    33    33     2   ar
    34    31     6   ar
    35    28    12   am
    36    26    21   ar
    37     1    34    1
    38     1    35    1
    39     1    36    1
    40     4    37    1
    41     7    38    1
    42     8    39    1
    43    10    40    1
    44    11    41    1
    45    11    42    1
    46    11    43    1
    47    13    44    1
    48    13    45    1
    49    14    46    1
    50    14    47    1
    51    16    48    1
    52    16    49    1
    53    18    50    1
    54    18    51    1
    55    18    52    1
    56    19    53    1
    57    19    54    1
    58    19    55    1
    59    20    56    1
    60    22    57    1
    61    23    58    1
    62    24    59    1
    63    25    60    1
    64    26    61    1
    65    30    62    1
    66    31    63    1
    67    32    64    1
