@<TRIPOS>MOLECULE
*****
 31 31 0 0 0
SMALL
GASTEIGER

@<TRIPOS>ATOM
      1 CA         -0.4528   -0.5235    0.4423 C.3     1  LEU1        0.1207
      2 CB         -1.4064    0.4690   -0.1197 C.3     1  LEU1       -0.0218
      3 CG         -2.7984    0.3487    0.3134 C.3     1  LEU1       -0.0445
      4 CD1        -3.5103   -0.9129   -0.0349 C.3     1  LEU1       -0.0626
      5 CD2        -3.5587    1.5612   -0.2317 C.3     1  LEU1       -0.0626
      6 N           0.9064   -0.2088   -0.0936 N.am    1  LEU1       -0.2958
      7 C           1.9715    0.2080    0.7608 C.2     0  UNK0        0.2800
      8 O           1.7405    0.3056    1.9829 O.2     0  UNK0       -0.2668
      9 C           3.2781    0.5052    0.2062 C.ar    0  UNK0        0.1890
     10 C           3.6332    0.4273   -1.1330 C.ar    0  UNK0       -0.0113
     11 C           4.9767    0.7912   -1.2666 C.ar    0  UNK0       -0.0231
     12 C           5.3483    1.0722    0.0468 C.ar    0  UNK0        0.0928
     13 O           4.3314    0.8917    0.8590 O.2     0  UNK0       -0.4583
     14 C          -0.6667   -1.9526    0.1244 C.2     1  LEU1        0.3253
     15 O          -0.0257   -2.9326   -0.6288 O.3     1  LEU1       -0.4793
     16 OXT        -1.4315   -2.9656    0.3153 O.2     1  LEU1       -0.2489
     17 HA         -0.4075   -0.3625    1.5489 H       1  LEU1        0.0614
     18 HB1        -0.9972    1.4975    0.1626 H       1  LEU1        0.0291
     19 HB2        -1.3272    0.4282   -1.2498 H       1  LEU1        0.0291
     20 HG         -2.8379    0.4723    1.4337 H       1  LEU1        0.0296
     21 HD11       -3.5893   -1.5646    0.8331 H       1  LEU1        0.0232
     22 HD12       -3.1158   -1.3886   -0.9325 H       1  LEU1        0.0232
     23 HD13       -4.5972   -0.6639   -0.2970 H       1  LEU1        0.0232
     24 HD21       -2.8653    2.4124   -0.2672 H       1  LEU1        0.0232
     25 HD22       -3.9274    1.3413   -1.2552 H       1  LEU1        0.0232
     26 HD23       -4.4115    1.7502    0.4387 H       1  LEU1        0.0232
     27 H           1.0382   -0.3098   -1.1297 H       1  LEU1        0.1499
     28 H           3.0344    0.1431   -1.9868 H       0  UNK0        0.0657
     29 H           5.6110    0.8536   -2.1497 H       0  UNK0        0.0649
     30 H           6.3151    1.3900    0.3694 H       0  UNK0        0.1029
     31 H          -0.2578   -3.0831   -1.6236 H       1  LEU1        0.2951
@<TRIPOS>BOND
     1     1     2    1
     2     2     3    1
     3     3     4    1
     4     3     5    1
     5     1     6    1
     6     6     7   am
     7     7     8    2
     8     7     9    1
     9     9    10   ar
    10    10    11   ar
    11    11    12   ar
    12    12    13   ar
    13     1    14    1
    14    14    15    1
    15    14    16    2
    16    13     9   ar
    17     1    17    1
    18     2    18    1
    19     2    19    1
    20     3    20    1
    21     4    21    1
    22     4    22    1
    23     4    23    1
    24     5    24    1
    25     5    25    1
    26     5    26    1
    27     6    27    1
    28    10    28    1
    29    11    29    1
    30    12    30    1
    31    15    31    1
