@<TRIPOS>MOLECULE
*****
 37 40 0 0 0
SMALL
GASTEIGER

@<TRIPOS>ATOM
      1 O          -3.8022   -2.7483   -0.1772 O.2     1  UNL1       -0.2490
      2 C          -3.5635   -2.2238    0.9347 C.2     1  UNL1        0.3247
      3 O          -2.9820   -2.9990    1.9222 O.3     1  UNL1       -0.4794
      4 C          -3.9007   -0.8117    1.1693 C.3     1  UNL1        0.1202
      5 N          -2.7979    0.0393    0.8183 N.ar    1  UNL1       -0.3356
      6 C          -1.8174    0.4213    1.6448 C.ar    1  UNL1        0.0099
      7 C          -0.9196    1.2383    0.9770 C.ar    1  UNL1       -0.0158
      8 C           0.2934    1.8375    1.5392 C.3     1  UNL1        0.0233
      9 C           1.5094    1.0309    1.1401 C.ar    1  UNL1        0.0841
     10 N           2.1215    0.0786    1.4364 N.ar    1  UNL1       -0.2406
     11 C           3.2149   -0.4256    0.9079 C.ar    1  UNL1        0.1192
     12 C           3.9510   -1.5693    1.2637 C.ar    1  UNL1        0.1849
     13 F           3.5877   -2.3721    2.2972 F       1  UNL1       -0.2002
     14 C           5.0734   -1.9081    0.5639 C.ar    1  UNL1        0.1633
     15 F           5.7795   -3.0339    0.9300 F       1  UNL1       -0.2023
     16 C           5.5765   -1.2144   -0.4974 C.ar    1  UNL1        0.0129
     17 C           4.8562   -0.0750   -0.8634 C.ar    1  UNL1        0.1420
     18 F           5.2709    0.6790   -1.8990 F       1  UNL1       -0.2042
     19 C           3.7213    0.2725   -0.1601 C.ar    1  UNL1        0.0773
     20 S           2.5559    1.6292   -0.3212 S.2     1  UNL1       -0.0688
     21 C          -1.3758    1.3579   -0.3112 C.ar    1  UNL1        0.0061
     22 C          -0.8966    2.0426   -1.4026 C.ar    1  UNL1       -0.0170
     23 C          -1.6222    1.9538   -2.5869 C.ar    1  UNL1        0.1241
     24 F          -1.1268    2.6394   -3.6514 F       1  UNL1       -0.2055
     25 C          -2.7789    1.2083   -2.6668 C.ar    1  UNL1       -0.0245
     26 C          -3.2311    0.5324   -1.5453 C.ar    1  UNL1       -0.0349
     27 C          -2.5461    0.5939   -0.3597 C.ar    1  UNL1        0.0500
     28 H          -3.0554   -4.0083    1.8919 H       1  UNL1        0.2951
     29 H          -4.8246   -0.5067    0.6178 H       1  UNL1        0.0607
     30 H          -4.1678   -0.7104    2.2496 H       1  UNL1        0.0607
     31 H          -1.7513    0.1258    2.6800 H       1  UNL1        0.0812
     32 H           0.2316    1.8388    2.6427 H       1  UNL1        0.0383
     33 H           0.4173    2.8955    1.2193 H       1  UNL1        0.0383
     34 H           6.4613   -1.5413   -0.9960 H       1  UNL1        0.0676
     35 H           0.0066    2.6463   -1.3768 H       1  UNL1        0.0653
     36 H          -3.3237    1.1533   -3.5921 H       1  UNL1        0.0647
     37 H          -4.1448   -0.0667   -1.5776 H       1  UNL1        0.0639
@<TRIPOS>BOND
     1     1     2    2
     2     2     3    1
     3     2     4    1
     4     4     5    1
     5     5     6   ar
     6     6     7   ar
     7     7     8    1
     8     8     9    1
     9     9    10   ar
    10    10    11   ar
    11    11    12   ar
    12    12    13    1
    13    12    14   ar
    14    14    15    1
    15    14    16   ar
    16    16    17   ar
    17    17    18    1
    18    17    19   ar
    19    19    20   ar
    20     7    21   ar
    21    21    22   ar
    22    22    23   ar
    23    23    24    1
    24    23    25   ar
    25    25    26   ar
    26    26    27   ar
    27    27     5   ar
    28    20     9   ar
    29    27    21   ar
    30    19    11   ar
    31     3    28    1
    32     4    29    1
    33     4    30    1
    34     6    31    1
    35     8    32    1
    36     8    33    1
    37    16    34    1
    38    22    35    1
    39    25    36    1
    40    26    37    1
