@<TRIPOS>MOLECULE
*****
 30 32 0 0 0
SMALL
GASTEIGER

@<TRIPOS>ATOM
      1 O          -1.8983    1.3269    2.7615 O.2     1  UNL1       -0.2869
      2 C          -1.4128    0.8373    1.7272 C.ar    1  UNL1        0.1966
      3 C          -0.0311    0.6425    1.5791 C.ar    1  UNL1        0.0288
      4 C           0.5010    0.1036    0.4401 C.ar    1  UNL1        0.1392
      5 C           1.9220   -0.1120    0.2520 C.ar    1  UNL1        0.0176
      6 C           2.3985   -0.6695   -0.9426 C.ar    1  UNL1       -0.0476
      7 C           3.7378   -0.8937   -1.1687 C.ar    1  UNL1       -0.0195
      8 C           4.6849   -0.5738   -0.2126 C.ar    1  UNL1        0.1169
      9 O           6.0510   -0.8014   -0.4408 O.3     1  UNL1       -0.5068
     10 C           4.2288   -0.0286    0.9578 C.ar    1  UNL1       -0.0195
     11 C           2.8857    0.1953    1.1824 C.ar    1  UNL1       -0.0476
     12 O          -0.3191   -0.2367   -0.5353 O.2     1  UNL1       -0.4544
     13 C          -1.6195   -0.0833   -0.4656 C.ar    1  UNL1        0.1462
     14 C          -2.4533   -0.4552   -1.5177 C.ar    1  UNL1        0.0231
     15 C          -3.8224   -0.3076   -1.4768 C.ar    1  UNL1        0.1239
     16 O          -4.5911   -0.7052   -2.5744 O.3     1  UNL1       -0.5065
     17 C          -4.3866    0.2313   -0.3448 C.ar    1  UNL1        0.0223
     18 C          -3.5773    0.6061    0.7086 C.ar    1  UNL1        0.1347
     19 O          -4.1137    1.1555    1.8711 O.3     1  UNL1       -0.5058
     20 C          -2.1993    0.4560    0.6638 C.ar    1  UNL1        0.1055
     21 H           0.6020    0.9306    2.3913 H       1  UNL1        0.0693
     22 H           1.6769   -0.9316   -1.7138 H       1  UNL1        0.0626
     23 H           4.1096   -1.3256   -2.0935 H       1  UNL1        0.0654
     24 H           6.7672   -0.2579    0.0072 H       1  UNL1        0.2921
     25 H           4.9322    0.2315    1.7204 H       1  UNL1        0.0654
     26 H           2.5372    0.6338    2.1279 H       1  UNL1        0.0626
     27 H          -2.0071   -0.8801   -2.4097 H       1  UNL1        0.0691
     28 H          -5.1339   -1.5789   -2.5212 H       1  UNL1        0.2921
     29 H          -5.4653    0.3501   -0.3069 H       1  UNL1        0.0691
     30 H          -4.0043    2.1404    2.1068 H       1  UNL1        0.2922
@<TRIPOS>BOND
     1     1     2    2
     2     2     3   ar
     3     3     4   ar
     4     4     5    1
     5     5     6   ar
     6     6     7   ar
     7     7     8   ar
     8     8     9    1
     9     8    10   ar
    10    10    11   ar
    11     4    12   ar
    12    12    13   ar
    13    13    14   ar
    14    14    15   ar
    15    15    16    1
    16    15    17   ar
    17    17    18   ar
    18    18    19    1
    19    18    20   ar
    20    20     2   ar
    21    11     5   ar
    22    20    13   ar
    23     3    21    1
    24     6    22    1
    25     7    23    1
    26     9    24    1
    27    10    25    1
    28    11    26    1
    29    14    27    1
    30    16    28    1
    31    17    29    1
    32    19    30    1
