
     RDKit          3D

 30 32  0  0  0  0  0  0  0  0999 V2000
   -1.8983    1.3269    2.7615 O   0  0  0  0  0  0  0  0  0  0  0  0
   -1.4128    0.8373    1.7272 C   0  0  0  0  0  0  0  0  0  0  0  0
   -0.0311    0.6425    1.5791 C   0  0  0  0  0  0  0  0  0  0  0  0
    0.5010    0.1036    0.4401 C   0  0  0  0  0  0  0  0  0  0  0  0
    1.9220   -0.1120    0.2520 C   0  0  0  0  0  0  0  0  0  0  0  0
    2.3985   -0.6695   -0.9426 C   0  0  0  0  0  0  0  0  0  0  0  0
    3.7378   -0.8937   -1.1687 C   0  0  0  0  0  0  0  0  0  0  0  0
    4.6849   -0.5738   -0.2126 C   0  0  0  0  0  0  0  0  0  0  0  0
    6.0510   -0.8014   -0.4408 O   0  0  0  0  0  0  0  0  0  0  0  0
    4.2288   -0.0286    0.9578 C   0  0  0  0  0  0  0  0  0  0  0  0
    2.8857    0.1953    1.1824 C   0  0  0  0  0  0  0  0  0  0  0  0
   -0.3191   -0.2367   -0.5353 O   0  0  0  0  0  0  0  0  0  0  0  0
   -1.6195   -0.0833   -0.4656 C   0  0  0  0  0  0  0  0  0  0  0  0
   -2.4533   -0.4552   -1.5177 C   0  0  0  0  0  0  0  0  0  0  0  0
   -3.8224   -0.3076   -1.4768 C   0  0  0  0  0  0  0  0  0  0  0  0
   -4.5911   -0.7052   -2.5744 O   0  0  0  0  0  0  0  0  0  0  0  0
   -4.3866    0.2313   -0.3448 C   0  0  0  0  0  0  0  0  0  0  0  0
   -3.5773    0.6061    0.7086 C   0  0  0  0  0  0  0  0  0  0  0  0
   -4.1137    1.1555    1.8711 O   0  0  0  0  0  0  0  0  0  0  0  0
   -2.1993    0.4560    0.6638 C   0  0  0  0  0  0  0  0  0  0  0  0
    0.6020    0.9306    2.3913 H   0  0  0  0  0  0  0  0  0  0  0  0
    1.6769   -0.9316   -1.7138 H   0  0  0  0  0  0  0  0  0  0  0  0
    4.1096   -1.3256   -2.0935 H   0  0  0  0  0  0  0  0  0  0  0  0
    6.7672   -0.2579    0.0072 H   0  0  0  0  0  0  0  0  0  0  0  0
    4.9322    0.2315    1.7204 H   0  0  0  0  0  0  0  0  0  0  0  0
    2.5372    0.6338    2.1279 H   0  0  0  0  0  0  0  0  0  0  0  0
   -2.0071   -0.8801   -2.4097 H   0  0  0  0  0  0  0  0  0  0  0  0
   -5.1339   -1.5789   -2.5212 H   0  0  0  0  0  0  0  0  0  0  0  0
   -5.4653    0.3501   -0.3069 H   0  0  0  0  0  0  0  0  0  0  0  0
   -4.0043    2.1404    2.1068 H   0  0  0  0  0  0  0  0  0  0  0  0
  1  2  2  0
  2  3  1  0
  3  4  2  0
  4  5  1  0
  5  6  2  0
  6  7  1  0
  7  8  2  0
  8  9  1  0
  8 10  1  0
 10 11  2  0
  4 12  1  0
 12 13  1  0
 13 14  2  0
 14 15  1  0
 15 16  1  0
 15 17  2  0
 17 18  1  0
 18 19  1  0
 18 20  2  0
 20  2  1  0
 11  5  1  0
 20 13  1  0
  3 21  1  0
  6 22  1  0
  7 23  1  0
  9 24  1  0
 10 25  1  0
 11 26  1  0
 14 27  1  0
 16 28  1  0
 17 29  1  0
 19 30  1  0
M  END
$$$$
