
     RDKit          3D

 62 65  0  0  0  0  0  0  0  0999 V2000
   -6.5397    3.3629   -2.0759 C   0  0  0  0  0  0  0  0  0  0  0  0
   -7.2901    2.2742   -1.6237 O   0  0  0  0  0  0  0  0  0  0  0  0
   -7.1639    2.1335   -0.2327 C   0  0  0  0  0  0  0  0  0  0  0  0
   -7.9957    0.9481    0.1903 C   0  0  0  0  0  0  0  0  0  0  0  0
   -7.5625   -0.2237   -0.4403 O   0  0  0  0  0  0  0  0  0  0  0  0
   -6.3013   -0.6976   -0.2815 C   0  0  0  0  0  0  0  0  0  0  0  0
   -5.9063   -1.8653   -0.9180 C   0  0  0  0  0  0  0  0  0  0  0  0
   -4.6712   -2.3764   -0.7942 N   0  0  0  0  0  0  0  0  0  0  0  0
   -3.7335   -1.7732   -0.0331 C   0  0  0  0  0  0  0  0  0  0  0  0
   -2.4027   -2.3501    0.0893 C   0  0  0  0  0  0  0  0  0  0  0  0
   -2.1510   -3.5256   -0.5474 F   0  0  0  0  0  0  0  0  0  0  0  0
   -1.4017   -1.8312    0.7665 C   0  0  0  0  0  0  0  0  0  0  0  0
   -0.0794   -2.4933    0.8354 C   0  0  0  0  0  0  0  0  0  0  0  0
   -0.0154   -3.8510    1.0197 C   0  0  0  0  0  0  0  0  0  0  0  0
    1.2177   -4.4542    1.0626 C   0  0  0  0  0  0  0  0  0  0  0  0
    2.3592   -3.7040    0.9228 C   0  0  0  0  0  0  0  0  0  0  0  0
    3.6034   -4.2834    0.9535 F   0  0  0  0  0  0  0  0  0  0  0  0
    2.3103   -2.3308    0.7364 C   0  0  0  0  0  0  0  0  0  0  0  0
    3.5800   -1.5301    0.5786 C   0  0  1  0  0  0  0  0  0  0  0  0
    4.4115   -1.6627    1.8311 C   0  0  0  0  0  0  0  0  0  0  0  0
    4.2119   -2.0895   -0.5827 N   0  0  0  0  0  0  0  0  0  0  0  0
    5.1649   -1.5601   -1.2524 C   0  0  0  0  0  0  0  0  0  0  0  0
    5.7458   -2.1676   -2.3929 N   0  0  0  0  0  0  0  0  0  0  0  0
    5.7121    0.0458   -0.6237 S   0  0  0  0  0  0  0  0  0  0  0  0
    4.2102    0.8500   -0.0054 C   0  0  1  0  0  0  0  0  0  0  0  0
    4.4172    2.0635    0.8243 C   0  0  0  0  0  0  0  0  0  0  0  0
    4.5775    1.8718    2.0548 O   0  0  0  0  0  0  0  0  0  0  0  0
    4.4416    3.3700    0.3159 N   0  0  0  0  0  0  0  0  0  0  0  0
    4.6438    4.4896    1.2096 C   0  0  0  0  0  0  0  0  0  0  0  0
    4.2713    3.6502   -1.0999 C   0  0  0  0  0  0  0  0  0  0  0  0
    2.9778    0.6274   -0.7846 C   0  0  0  0  0  0  0  0  0  0  0  0
    3.1816   -0.0960    0.4665 C   0  0  1  0  0  0  0  0  0  0  0  0
    1.0690   -1.7349    0.6948 C   0  0  0  0  0  0  0  0  0  0  0  0
   -4.1320   -0.6132    0.5969 C   0  0  0  0  0  0  0  0  0  0  0  0
   -5.3689   -0.0989    0.4750 N   0  0  0  0  0  0  0  0  0  0  0  0
   -5.4743    3.2459   -1.8426 H   0  0  0  0  0  0  0  0  0  0  0  0
   -7.0039    4.2737   -1.6374 H   0  0  0  0  0  0  0  0  0  0  0  0
   -6.5964    3.3597   -3.2024 H   0  0  0  0  0  0  0  0  0  0  0  0
   -7.5917    3.0885    0.1813 H   0  0  0  0  0  0  0  0  0  0  0  0
   -6.1239    2.0880    0.0786 H   0  0  0  0  0  0  0  0  0  0  0  0
   -9.0817    1.1610   -0.0427 H   0  0  0  0  0  0  0  0  0  0  0  0
   -7.8768    0.7752    1.2904 H   0  0  0  0  0  0  0  0  0  0  0  0
   -6.6544   -2.3579   -1.5337 H   0  0  0  0  0  0  0  0  0  0  0  0
   -1.5718   -0.8957    1.2788 H   0  0  0  0  0  0  0  0  0  0  0  0
   -0.9402   -4.4557    1.1350 H   0  0  0  0  0  0  0  0  0  0  0  0
    1.3312   -5.5088    1.2036 H   0  0  0  0  0  0  0  0  0  0  0  0
    4.0174   -0.9172    2.5684 H   0  0  0  0  0  0  0  0  0  0  0  0
    5.4625   -1.3215    1.6087 H   0  0  0  0  0  0  0  0  0  0  0  0
    4.5000   -2.6620    2.2378 H   0  0  0  0  0  0  0  0  0  0  0  0
    5.6848   -1.7341   -3.3395 H   0  0  0  0  0  0  0  0  0  0  0  0
    6.2600   -3.0729   -2.3459 H   0  0  0  0  0  0  0  0  0  0  0  0
    4.9652    4.1510    2.2082 H   0  0  0  0  0  0  0  0  0  0  0  0
    3.6850    5.0278    1.3369 H   0  0  0  0  0  0  0  0  0  0  0  0
    5.4201    5.1456    0.7513 H   0  0  0  0  0  0  0  0  0  0  0  0
    3.4865    4.4111   -1.2622 H   0  0  0  0  0  0  0  0  0  0  0  0
    4.0846    2.6877   -1.6149 H   0  0  0  0  0  0  0  0  0  0  0  0
    5.2294    4.0672   -1.5215 H   0  0  0  0  0  0  0  0  0  0  0  0
    3.0794    0.1162   -1.7739 H   0  0  0  0  0  0  0  0  0  0  0  0
    2.2022    1.4410   -0.8171 H   0  0  0  0  0  0  0  0  0  0  0  0
    2.5686    0.2387    1.3532 H   0  0  0  0  0  0  0  0  0  0  0  0
    0.9753   -0.6457    0.5440 H   0  0  0  0  0  0  0  0  0  0  0  0
   -3.4289   -0.0809    1.2219 H   0  0  0  0  0  0  0  0  0  0  0  0
  1  2  1  0
  2  3  1  0
  3  4  1  0
  4  5  1  0
  5  6  1  0
  6  7  2  0
  7  8  1  0
  8  9  2  0
  9 10  1  0
 10 11  1  0
 10 12  2  0
 12 13  1  0
 13 14  2  0
 14 15  1  0
 15 16  2  0
 16 17  1  0
 16 18  1  0
 18 19  1  0
 19 20  1  1
 19 21  1  0
 21 22  2  0
 22 23  1  0
 22 24  1  0
 24 25  1  0
 25 26  1  1
 26 27  2  0
 26 28  1  0
 28 29  1  0
 28 30  1  0
 25 31  1  0
 31 32  1  0
 18 33  2  0
  9 34  1  0
 34 35  2  0
 35  6  1  0
 33 13  1  0
 32 19  1  0
 32 25  1  0
  1 36  1  0
  1 37  1  0
  1 38  1  0
  3 39  1  0
  3 40  1  0
  4 41  1  0
  4 42  1  0
  7 43  1  0
 12 44  1  0
 14 45  1  0
 15 46  1  0
 20 47  1  0
 20 48  1  0
 20 49  1  0
 23 50  1  0
 23 51  1  0
 29 52  1  0
 29 53  1  0
 29 54  1  0
 30 55  1  0
 30 56  1  0
 30 57  1  0
 31 58  1  0
 31 59  1  0
 32 60  1  1
 33 61  1  0
 34 62  1  0
M  END
$$$$
