@<TRIPOS>MOLECULE
*****
 62 65 0 0 0
SMALL
GASTEIGER

@<TRIPOS>ATOM
      1 C          -6.5397    3.3629   -2.0759 C.3     1  UNL1        0.0366
      2 O          -7.2901    2.2742   -1.6237 O.3     1  UNL1       -0.3796
      3 C          -7.1639    2.1335   -0.2327 C.3     1  UNL1        0.0814
      4 C          -7.9957    0.9481    0.1903 C.3     1  UNL1        0.1145
      5 O          -7.5625   -0.2237   -0.4403 O.3     1  UNL1       -0.4730
      6 C          -6.3013   -0.6976   -0.2815 C.ar    1  UNL1        0.2335
      7 C          -5.9063   -1.8653   -0.9180 C.ar    1  UNL1        0.0898
      8 N          -4.6712   -2.3764   -0.7942 N.ar    1  UNL1       -0.2459
      9 C          -3.7335   -1.7732   -0.0331 C.ar    1  UNL1        0.1172
     10 C          -2.4027   -2.3501    0.0893 C.2     1  UNL1        0.1507
     11 F          -2.1510   -3.5256   -0.5474 F       1  UNL1       -0.2032
     12 C          -1.4017   -1.8312    0.7665 C.2     1  UNL1       -0.0171
     13 C          -0.0794   -2.4933    0.8354 C.ar    1  UNL1       -0.0217
     14 C          -0.0154   -3.8510    1.0197 C.ar    1  UNL1       -0.0518
     15 C           1.2177   -4.4542    1.0626 C.ar    1  UNL1       -0.0255
     16 C           2.3592   -3.7040    0.9228 C.ar    1  UNL1        0.1289
     17 F           3.6034   -4.2834    0.9535 F       1  UNL1       -0.2051
     18 C           2.3103   -2.3308    0.7364 C.ar    1  UNL1        0.0158
     19 C           3.5800   -1.5301    0.5786 C.3     1  UNL1        0.0935
     20 C           4.4115   -1.6627    1.8311 C.3     1  UNL1       -0.0351
     21 N           4.2119   -2.0895   -0.5827 N.2     1  UNL1       -0.2521
     22 C           5.1649   -1.5601   -1.2524 C.2     1  UNL1        0.1485
     23 N           5.7458   -2.1676   -2.3929 N.pl3   1  UNL1       -0.3380
     24 S           5.7121    0.0458   -0.6237 S.3     1  UNL1       -0.0746
     25 C           4.2102    0.8500   -0.0054 C.3     1  UNL1        0.1054
     26 C           4.4172    2.0635    0.8243 C.2     1  UNL1        0.2319
     27 O           4.5775    1.8718    2.0548 O.2     1  UNL1       -0.2741
     28 N           4.4416    3.3700    0.3159 N.am    1  UNL1       -0.3064
     29 C           4.6438    4.4896    1.2096 C.3     1  UNL1        0.0029
     30 C           4.2713    3.6502   -1.0999 C.3     1  UNL1        0.0029
     31 C           2.9778    0.6274   -0.7846 C.3     1  UNL1       -0.0220
     32 C           3.1816   -0.0960    0.4665 C.3     1  UNL1        0.0134
     33 C           1.0690   -1.7349    0.6948 C.ar    1  UNL1       -0.0463
     34 C          -4.1320   -0.6132    0.5969 C.ar    1  UNL1        0.0596
     35 N          -5.3689   -0.0989    0.4750 N.ar    1  UNL1       -0.2178
     36 H          -5.4743    3.2459   -1.8426 H       1  UNL1        0.0524
     37 H          -7.0039    4.2737   -1.6374 H       1  UNL1        0.0524
     38 H          -6.5964    3.3597   -3.2024 H       1  UNL1        0.0524
     39 H          -7.5917    3.0885    0.1813 H       1  UNL1        0.0593
     40 H          -6.1239    2.0880    0.0786 H       1  UNL1        0.0593
     41 H          -9.0817    1.1610   -0.0427 H       1  UNL1        0.0720
     42 H          -7.8768    0.7752    1.2904 H       1  UNL1        0.0720
     43 H          -6.6544   -2.3579   -1.5337 H       1  UNL1        0.0884
     44 H          -1.5718   -0.8957    1.2788 H       1  UNL1        0.0653
     45 H          -0.9402   -4.4557    1.1350 H       1  UNL1        0.0624
     46 H           1.3312   -5.5088    1.2036 H       1  UNL1        0.0646
     47 H           4.0174   -0.9172    2.5684 H       1  UNL1        0.0256
     48 H           5.4625   -1.3215    1.6087 H       1  UNL1        0.0256
     49 H           4.5000   -2.6620    2.2378 H       1  UNL1        0.0256
     50 H           5.6848   -1.7341   -3.3395 H       1  UNL1        0.1442
     51 H           6.2600   -3.0729   -2.3459 H       1  UNL1        0.1442
     52 H           4.9652    4.1510    2.2082 H       1  UNL1        0.0428
     53 H           3.6850    5.0278    1.3369 H       1  UNL1        0.0428
     54 H           5.4201    5.1456    0.7513 H       1  UNL1        0.0428
     55 H           3.4865    4.4111   -1.2622 H       1  UNL1        0.0428
     56 H           4.0846    2.6877   -1.6149 H       1  UNL1        0.0428
     57 H           5.2294    4.0672   -1.5215 H       1  UNL1        0.0428
     58 H           3.0794    0.1162   -1.7739 H       1  UNL1        0.0287
     59 H           2.2022    1.4410   -0.8171 H       1  UNL1        0.0287
     60 H           2.5686    0.2387    1.3532 H       1  UNL1        0.0346
     61 H           0.9753   -0.6457    0.5440 H       1  UNL1        0.0628
     62 H          -3.4289   -0.0809    1.2219 H       1  UNL1        0.0853
@<TRIPOS>BOND
     1     1     2    1
     2     2     3    1
     3     3     4    1
     4     4     5    1
     5     5     6    1
     6     6     7   ar
     7     7     8   ar
     8     8     9   ar
     9     9    10    1
    10    10    11    1
    11    10    12    2
    12    12    13    1
    13    13    14   ar
    14    14    15   ar
    15    15    16   ar
    16    16    17    1
    17    16    18   ar
    18    18    19    1
    19    19    20    1
    20    19    21    1
    21    21    22    2
    22    22    23    1
    23    22    24    1
    24    24    25    1
    25    25    26    1
    26    26    27    2
    27    26    28   am
    28    28    29    1
    29    28    30    1
    30    25    31    1
    31    31    32    1
    32    18    33   ar
    33     9    34   ar
    34    34    35   ar
    35    35     6   ar
    36    33    13   ar
    37    32    19    1
    38    32    25    1
    39     1    36    1
    40     1    37    1
    41     1    38    1
    42     3    39    1
    43     3    40    1
    44     4    41    1
    45     4    42    1
    46     7    43    1
    47    12    44    1
    48    14    45    1
    49    15    46    1
    50    20    47    1
    51    20    48    1
    52    20    49    1
    53    23    50    1
    54    23    51    1
    55    29    52    1
    56    29    53    1
    57    29    54    1
    58    30    55    1
    59    30    56    1
    60    30    57    1
    61    31    58    1
    62    31    59    1
    63    32    60    1
    64    33    61    1
    65    34    62    1
