
     RDKit          3D

 53 56  0  0  0  0  0  0  0  0999 V2000
   -9.5254    1.6284    2.6669 N   0  0  0  0  0  0  0  0  0  0  0  0
   -8.3630    1.7564    1.8751 C   0  0  0  0  0  0  0  0  0  0  0  0
   -7.9433    2.8782    1.5027 O   0  0  0  0  0  0  0  0  0  0  0  0
   -7.6385    0.5600    1.4843 C   0  0  0  0  0  0  0  0  0  0  0  0
   -8.0885   -0.6974    1.8879 C   0  0  0  0  0  0  0  0  0  0  0  0
   -7.3934   -1.7561    1.5058 N   0  0  0  0  0  0  0  0  0  0  0  0
   -6.2814   -1.6838    0.7525 C   0  0  0  0  0  0  0  0  0  0  0  0
   -5.8185   -0.4529    0.3423 C   0  0  0  0  0  0  0  0  0  0  0  0
   -4.6834   -0.3933   -0.4255 O   0  0  0  0  0  0  0  0  0  0  0  0
   -4.1265    0.8256   -0.8979 C   0  0  0  0  0  0  0  0  0  0  0  0
   -2.9055    0.5262   -1.6946 C   0  0  0  0  0  0  0  0  0  0  0  0
   -3.0703    0.3126   -3.0467 C   0  0  0  0  0  0  0  0  0  0  0  0
   -1.9716    0.0351   -3.8096 C   0  0  0  0  0  0  0  0  0  0  0  0
   -0.7283   -0.0234   -3.2046 C   0  0  0  0  0  0  0  0  0  0  0  0
   -0.5019    0.1779   -1.8764 C   0  0  0  0  0  0  0  0  0  0  0  0
    0.7526    0.1287   -1.2093 N   0  0  0  0  0  0  0  0  0  0  0  0
    2.0079   -0.1357   -1.7783 C   0  0  0  0  0  0  0  0  0  0  0  0
    2.0759   -0.3583   -3.0057 O   0  0  0  0  0  0  0  0  0  0  0  0
    3.2634   -0.1667   -1.0061 C   0  0  0  0  0  0  0  0  0  0  0  0
    3.3556    0.0539    0.3313 C   0  0  0  0  0  0  0  0  0  0  0  0
    4.6026   -0.0023    0.9527 C   0  0  0  0  0  0  0  0  0  0  0  0
    5.7474   -0.2744    0.2552 C   0  0  0  0  0  0  0  0  0  0  0  0
    7.0393   -0.3286    0.9218 C   0  0  0  0  0  0  0  0  0  0  0  0
    7.1940   -0.9944    2.1157 C   0  0  0  0  0  0  0  0  0  0  0  0
    8.4434   -1.0344    2.7396 C   0  0  0  0  0  0  0  0  0  0  0  0
    9.5215   -0.4091    2.1631 C   0  0  0  0  0  0  0  0  0  0  0  0
    9.3430    0.2490    0.9716 C   0  0  0  0  0  0  0  0  0  0  0  0
    8.1119    0.3037    0.3310 C   0  0  0  0  0  0  0  0  0  0  0  0
    5.6768   -0.5001   -1.0951 C   0  0  0  0  0  0  0  0  0  0  0  0
    6.8109   -0.7692   -1.7826 F   0  0  0  0  0  0  0  0  0  0  0  0
    4.4443   -0.4437   -1.7040 C   0  0  0  0  0  0  0  0  0  0  0  0
   -1.6564    0.4610   -1.1232 C   0  0  0  0  0  0  0  0  0  0  0  0
   -6.4988    0.6810    0.7085 C   0  0  0  0  0  0  0  0  0  0  0  0
  -10.3818    2.1577    2.4242 H   0  0  0  0  0  0  0  0  0  0  0  0
   -9.5454    1.0093    3.4977 H   0  0  0  0  0  0  0  0  0  0  0  0
   -8.9918   -0.7320    2.4980 H   0  0  0  0  0  0  0  0  0  0  0  0
   -5.7524   -2.5818    0.4691 H   0  0  0  0  0  0  0  0  0  0  0  0
   -4.8302    1.3658   -1.5616 H   0  0  0  0  0  0  0  0  0  0  0  0
   -3.7930    1.4713   -0.0585 H   0  0  0  0  0  0  0  0  0  0  0  0
   -4.0615    0.3637   -3.5033 H   0  0  0  0  0  0  0  0  0  0  0  0
   -2.0853   -0.1373   -4.8866 H   0  0  0  0  0  0  0  0  0  0  0  0
    0.0888   -0.2443   -3.8558 H   0  0  0  0  0  0  0  0  0  0  0  0
    0.7810    0.3090   -0.1516 H   0  0  0  0  0  0  0  0  0  0  0  0
    2.4658    0.2701    0.9003 H   0  0  0  0  0  0  0  0  0  0  0  0
    4.6430    0.1796    2.0280 H   0  0  0  0  0  0  0  0  0  0  0  0
    6.3234   -1.4743    2.5391 H   0  0  0  0  0  0  0  0  0  0  0  0
    8.5288   -1.5642    3.6728 H   0  0  0  0  0  0  0  0  0  0  0  0
   10.4740   -0.4486    2.6538 H   0  0  0  0  0  0  0  0  0  0  0  0
   10.2103    0.7338    0.5385 H   0  0  0  0  0  0  0  0  0  0  0  0
    8.0251    0.8369   -0.6084 H   0  0  0  0  0  0  0  0  0  0  0  0
    4.4315   -0.6300   -2.7838 H   0  0  0  0  0  0  0  0  0  0  0  0
   -1.5599    0.6321   -0.0669 H   0  0  0  0  0  0  0  0  0  0  0  0
   -6.1662    1.6527    0.4067 H   0  0  0  0  0  0  0  0  0  0  0  0
  1  2  1  0
  2  3  2  0
  2  4  1  0
  4  5  2  0
  5  6  1  0
  6  7  2  0
  7  8  1  0
  8  9  1  0
  9 10  1  0
 10 11  1  0
 11 12  2  0
 12 13  1  0
 13 14  2  0
 14 15  1  0
 15 16  1  0
 16 17  1  0
 17 18  2  0
 17 19  1  0
 19 20  2  0
 20 21  1  0
 21 22  2  0
 22 23  1  0
 23 24  2  0
 24 25  1  0
 25 26  2  0
 26 27  1  0
 27 28  2  0
 22 29  1  0
 29 30  1  0
 29 31  2  0
 15 32  2  0
  8 33  2  0
 33  4  1  0
 32 11  1  0
 31 19  1  0
 28 23  1  0
  1 34  1  0
  1 35  1  0
  5 36  1  0
  7 37  1  0
 10 38  1  0
 10 39  1  0
 12 40  1  0
 13 41  1  0
 14 42  1  0
 16 43  1  0
 20 44  1  0
 21 45  1  0
 24 46  1  0
 25 47  1  0
 26 48  1  0
 27 49  1  0
 28 50  1  0
 31 51  1  0
 32 52  1  0
 33 53  1  0
M  END
$$$$
