@<TRIPOS>MOLECULE
*****
 53 56 0 0 0
SMALL
GASTEIGER

@<TRIPOS>ATOM
      1 N          -9.5254    1.6284    2.6669 N.am    1  UNL1       -0.3253
      2 C          -8.3630    1.7564    1.8751 C.2     1  UNL1        0.2431
      3 O          -7.9433    2.8782    1.5027 O.2     1  UNL1       -0.2704
      4 C          -7.6385    0.5600    1.4843 C.ar    1  UNL1        0.0580
      5 C          -8.0885   -0.6974    1.8879 C.ar    1  UNL1        0.0399
      6 N          -7.3934   -1.7561    1.5058 N.ar    1  UNL1       -0.2589
      7 C          -6.2814   -1.6838    0.7525 C.ar    1  UNL1        0.0692
      8 C          -5.8185   -0.4529    0.3423 C.ar    1  UNL1        0.1397
      9 O          -4.6834   -0.3933   -0.4255 O.3     1  UNL1       -0.4858
     10 C          -4.1265    0.8256   -0.8979 C.3     1  UNL1        0.1148
     11 C          -2.9055    0.5262   -1.6946 C.ar    1  UNL1       -0.0087
     12 C          -3.0703    0.3126   -3.0467 C.ar    1  UNL1       -0.0552
     13 C          -1.9716    0.0351   -3.8096 C.ar    1  UNL1       -0.0596
     14 C          -0.7283   -0.0234   -3.2046 C.ar    1  UNL1       -0.0404
     15 C          -0.5019    0.1779   -1.8764 C.ar    1  UNL1        0.0340
     16 N           0.7526    0.1287   -1.2093 N.am    1  UNL1       -0.2815
     17 C           2.0079   -0.1357   -1.7783 C.2     1  UNL1        0.2483
     18 O           2.0759   -0.3583   -3.0057 O.2     1  UNL1       -0.2699
     19 C           3.2634   -0.1667   -1.0061 C.ar    1  UNL1        0.0398
     20 C           3.3556    0.0539    0.3313 C.ar    1  UNL1       -0.0489
     21 C           4.6026   -0.0023    0.9527 C.ar    1  UNL1       -0.0506
     22 C           5.7474   -0.2744    0.2552 C.ar    1  UNL1        0.0174
     23 C           7.0393   -0.3286    0.9218 C.ar    1  UNL1       -0.0151
     24 C           7.1940   -0.9944    2.1157 C.ar    1  UNL1       -0.0539
     25 C           8.4434   -1.0344    2.7396 C.ar    1  UNL1       -0.0612
     26 C           9.5215   -0.4091    2.1631 C.ar    1  UNL1       -0.0617
     27 C           9.3430    0.2490    0.9716 C.ar    1  UNL1       -0.0612
     28 C           8.1119    0.3037    0.3310 C.ar    1  UNL1       -0.0539
     29 C           5.6768   -0.5001   -1.0951 C.ar    1  UNL1        0.1318
     30 F           6.8109   -0.7692   -1.7826 F       1  UNL1       -0.2048
     31 C           4.4443   -0.4437   -1.7040 C.ar    1  UNL1       -0.0137
     32 C          -1.6564    0.4610   -1.1232 C.ar    1  UNL1       -0.0341
     33 C          -6.4988    0.6810    0.7085 C.ar    1  UNL1       -0.0048
     34 H         -10.3818    2.1577    2.4242 H       1  UNL1        0.1453
     35 H          -9.5454    1.0093    3.4977 H       1  UNL1        0.1453
     36 H          -8.9918   -0.7320    2.4980 H       1  UNL1        0.0837
     37 H          -5.7524   -2.5818    0.4691 H       1  UNL1        0.0867
     38 H          -4.8302    1.3658   -1.5616 H       1  UNL1        0.0748
     39 H          -3.7930    1.4713   -0.0585 H       1  UNL1        0.0748
     40 H          -4.0615    0.3637   -3.5033 H       1  UNL1        0.0621
     41 H          -2.0853   -0.1373   -4.8866 H       1  UNL1        0.0618
     42 H           0.0888   -0.2443   -3.8558 H       1  UNL1        0.0636
     43 H           0.7810    0.3090   -0.1516 H       1  UNL1        0.1551
     44 H           2.4658    0.2701    0.9003 H       1  UNL1        0.0625
     45 H           4.6430    0.1796    2.0280 H       1  UNL1        0.0625
     46 H           6.3234   -1.4743    2.5391 H       1  UNL1        0.0624
     47 H           8.5288   -1.5642    3.6728 H       1  UNL1        0.0618
     48 H          10.4740   -0.4486    2.6538 H       1  UNL1        0.0618
     49 H          10.2103    0.7338    0.5385 H       1  UNL1        0.0618
     50 H           8.0251    0.8369   -0.6084 H       1  UNL1        0.0624
     51 H           4.4315   -0.6300   -2.7838 H       1  UNL1        0.0654
     52 H          -1.5599    0.6321   -0.0669 H       1  UNL1        0.0640
     53 H          -6.1662    1.6527    0.4067 H       1  UNL1        0.0663
@<TRIPOS>BOND
     1     1     2   am
     2     2     3    2
     3     2     4    1
     4     4     5   ar
     5     5     6   ar
     6     6     7   ar
     7     7     8   ar
     8     8     9    1
     9     9    10    1
    10    10    11    1
    11    11    12   ar
    12    12    13   ar
    13    13    14   ar
    14    14    15   ar
    15    15    16    1
    16    16    17   am
    17    17    18    2
    18    17    19    1
    19    19    20   ar
    20    20    21   ar
    21    21    22   ar
    22    22    23    1
    23    23    24   ar
    24    24    25   ar
    25    25    26   ar
    26    26    27   ar
    27    27    28   ar
    28    22    29   ar
    29    29    30    1
    30    29    31   ar
    31    15    32   ar
    32     8    33   ar
    33    33     4   ar
    34    32    11   ar
    35    31    19   ar
    36    28    23   ar
    37     1    34    1
    38     1    35    1
    39     5    36    1
    40     7    37    1
    41    10    38    1
    42    10    39    1
    43    12    40    1
    44    13    41    1
    45    14    42    1
    46    16    43    1
    47    20    44    1
    48    21    45    1
    49    24    46    1
    50    25    47    1
    51    26    48    1
    52    27    49    1
    53    28    50    1
    54    31    51    1
    55    32    52    1
    56    33    53    1
