@<TRIPOS>MOLECULE
*****
 63 67 0 0 0
SMALL
GASTEIGER

@<TRIPOS>ATOM
      1 C          -3.8894   -4.8367   -2.2791 C.3     1  UNL1       -0.0206
      2 C          -3.4278   -3.5410   -1.7471 C.ar    1  UNL1        0.0611
      3 C          -2.1369   -3.2787   -1.3589 C.ar    1  UNL1       -0.0084
      4 C          -2.1379   -1.9653   -0.9295 C.ar    1  UNL1        0.1296
      5 C          -0.9670   -1.2127   -0.4091 C.2     1  UNL1        0.2667
      6 O          -1.0989   -0.0242   -0.0514 O.2     1  UNL1       -0.2682
      7 N           0.3026   -1.8144   -0.3083 N.am    1  UNL1       -0.2802
      8 C           1.5060   -1.2311    0.1643 C.ar    1  UNL1        0.0338
      9 C           1.6437    0.0530    0.6166 C.ar    1  UNL1       -0.0399
     10 C           2.8746    0.5622    1.0713 C.ar    1  UNL1       -0.0522
     11 C           3.9857   -0.2349    1.0695 C.ar    1  UNL1       -0.0159
     12 C           5.3133    0.2319    1.4979 C.ar    1  UNL1        0.0084
     13 C           5.8064   -0.2414    2.7261 C.ar    1  UNL1       -0.0522
     14 C           7.0169    0.1916    3.1815 C.ar    1  UNL1       -0.0611
     15 C           7.7365    1.0899    2.4237 C.ar    1  UNL1       -0.0599
     16 C           7.2444    1.5467    1.2215 C.ar    1  UNL1       -0.0348
     17 C           6.0171    1.1253    0.7301 C.ar    1  UNL1        0.1127
     18 S           5.4642    1.6922   -0.7992 S.O2    1  UNL1        0.0565
     19 N           6.6418    2.7672   -1.4788 N.3     1  UNL1       -0.2035
     20 O           5.4036    0.4955   -1.7380 O.2     1  UNL1       -0.1532
     21 O           4.1459    2.3493   -0.7714 O.2     1  UNL1       -0.1532
     22 C           3.8885   -1.5397    0.6205 C.ar    1  UNL1       -0.0522
     23 C           2.6676   -1.9921    0.1873 C.ar    1  UNL1       -0.0399
     24 N          -3.3788   -1.4699   -1.0582 N.ar    1  UNL1       -0.2255
     25 C          -3.7496   -0.1414   -0.7104 C.ar    1  UNL1        0.0915
     26 C          -3.3044    0.9566   -1.4070 C.ar    1  UNL1       -0.0267
     27 C          -3.6575    2.2482   -1.0785 C.ar    1  UNL1       -0.0158
     28 C          -3.1933    3.3437   -1.7998 C.ar    1  UNL1       -0.0540
     29 C          -3.5790    4.6173   -1.4269 C.ar    1  UNL1       -0.0612
     30 C          -4.4202    4.7835   -0.3430 C.ar    1  UNL1       -0.0612
     31 C          -4.8733    3.6652    0.3660 C.ar    1  UNL1       -0.0540
     32 C          -4.4950    2.3899    0.0030 C.ar    1  UNL1       -0.0160
     33 C          -4.9528    1.3035    0.7149 C.ar    1  UNL1       -0.0271
     34 C          -4.5894    0.0189    0.3723 C.ar    1  UNL1        0.1138
     35 S          -5.1837   -1.3539    1.2921 S.O2    1  UNL1       -0.0039
     36 C          -3.8538   -2.2814    2.0012 C.3     1  UNL1        0.0597
     37 O          -6.0064   -0.8100    2.4263 O.2     1  UNL1       -0.1696
     38 O          -6.1093   -2.2097    0.4770 O.2     1  UNL1       -0.1696
     39 N          -4.1248   -2.4394   -1.5500 N.ar    1  UNL1       -0.1709
     40 H          -4.9904   -4.8334   -2.4206 H       1  UNL1        0.0293
     41 H          -3.3581   -5.0134   -3.2366 H       1  UNL1        0.0293
     42 H          -3.6169   -5.6443   -1.5908 H       1  UNL1        0.0293
     43 H          -1.2768   -3.9387   -1.3733 H       1  UNL1        0.0659
     44 H           0.3160   -2.8376   -0.6397 H       1  UNL1        0.1552
     45 H           0.8245    0.7177    0.6423 H       1  UNL1        0.0636
     46 H           2.9528    1.5683    1.4430 H       1  UNL1        0.0624
     47 H           5.2205   -0.9495    3.3058 H       1  UNL1        0.0624
     48 H           7.4105   -0.1699    4.1358 H       1  UNL1        0.0618
     49 H           8.7008    1.4148    2.8198 H       1  UNL1        0.0618
     50 H           7.8243    2.2553    0.6354 H       1  UNL1        0.0637
     51 H           6.2672    3.1383   -2.3797 H       1  UNL1        0.1442
     52 H           6.8406    3.5752   -0.8515 H       1  UNL1        0.1442
     53 H           4.7768   -2.1646    0.6241 H       1  UNL1        0.0624
     54 H           2.5968   -3.0086   -0.1613 H       1  UNL1        0.0636
     55 H          -2.6447    0.8100   -2.2554 H       1  UNL1        0.0645
     56 H          -2.5378    3.1765   -2.6406 H       1  UNL1        0.0624
     57 H          -3.2410    5.4998   -1.9609 H       1  UNL1        0.0618
     58 H          -4.7467    5.7679   -0.0176 H       1  UNL1        0.0618
     59 H          -5.5332    3.7685    1.2192 H       1  UNL1        0.0624
     60 H          -5.6259    1.4394    1.5820 H       1  UNL1        0.0643
     61 H          -3.5127   -3.1052    1.3662 H       1  UNL1        0.0468
     62 H          -3.0346   -1.5626    2.2216 H       1  UNL1        0.0468
     63 H          -4.1421   -2.7178    2.9924 H       1  UNL1        0.0468
@<TRIPOS>BOND
     1     1     2    1
     2     2     3   ar
     3     3     4   ar
     4     4     5    1
     5     5     6    2
     6     5     7   am
     7     7     8    1
     8     8     9   ar
     9     9    10   ar
    10    10    11   ar
    11    11    12    1
    12    12    13   ar
    13    13    14   ar
    14    14    15   ar
    15    15    16   ar
    16    16    17   ar
    17    17    18    1
    18    18    19    1
    19    18    20    2
    20    18    21    2
    21    11    22   ar
    22    22    23   ar
    23     4    24   ar
    24    24    25    1
    25    25    26   ar
    26    26    27   ar
    27    27    28   ar
    28    28    29   ar
    29    29    30   ar
    30    30    31   ar
    31    31    32   ar
    32    32    33   ar
    33    33    34   ar
    34    34    35    1
    35    35    36    1
    36    35    37    2
    37    35    38    2
    38    24    39   ar
    39    39     2   ar
    40    23     8   ar
    41    34    25   ar
    42    17    12   ar
    43    32    27   ar
    44     1    40    1
    45     1    41    1
    46     1    42    1
    47     3    43    1
    48     7    44    1
    49     9    45    1
    50    10    46    1
    51    13    47    1
    52    14    48    1
    53    15    49    1
    54    16    50    1
    55    19    51    1
    56    19    52    1
    57    22    53    1
    58    23    54    1
    59    26    55    1
    60    28    56    1
    61    29    57    1
    62    30    58    1
    63    31    59    1
    64    33    60    1
    65    36    61    1
    66    36    62    1
    67    36    63    1
