
     RDKit          3D

 63 67  0  0  0  0  0  0  0  0999 V2000
   -3.8894   -4.8367   -2.2791 C   0  0  0  0  0  0  0  0  0  0  0  0
   -3.4278   -3.5410   -1.7471 C   0  0  0  0  0  0  0  0  0  0  0  0
   -2.1369   -3.2787   -1.3589 C   0  0  0  0  0  0  0  0  0  0  0  0
   -2.1379   -1.9653   -0.9295 C   0  0  0  0  0  0  0  0  0  0  0  0
   -0.9670   -1.2127   -0.4091 C   0  0  0  0  0  0  0  0  0  0  0  0
   -1.0989   -0.0242   -0.0514 O   0  0  0  0  0  0  0  0  0  0  0  0
    0.3026   -1.8144   -0.3083 N   0  0  0  0  0  0  0  0  0  0  0  0
    1.5060   -1.2311    0.1643 C   0  0  0  0  0  0  0  0  0  0  0  0
    1.6437    0.0530    0.6166 C   0  0  0  0  0  0  0  0  0  0  0  0
    2.8746    0.5622    1.0713 C   0  0  0  0  0  0  0  0  0  0  0  0
    3.9857   -0.2349    1.0695 C   0  0  0  0  0  0  0  0  0  0  0  0
    5.3133    0.2319    1.4979 C   0  0  0  0  0  0  0  0  0  0  0  0
    5.8064   -0.2414    2.7261 C   0  0  0  0  0  0  0  0  0  0  0  0
    7.0169    0.1916    3.1815 C   0  0  0  0  0  0  0  0  0  0  0  0
    7.7365    1.0899    2.4237 C   0  0  0  0  0  0  0  0  0  0  0  0
    7.2444    1.5467    1.2215 C   0  0  0  0  0  0  0  0  0  0  0  0
    6.0171    1.1253    0.7301 C   0  0  0  0  0  0  0  0  0  0  0  0
    5.4642    1.6922   -0.7992 S   0  0  0  0  0  6  0  0  0  0  0  0
    6.6418    2.7672   -1.4788 N   0  0  0  0  0  0  0  0  0  0  0  0
    5.4036    0.4955   -1.7380 O   0  0  0  0  0  0  0  0  0  0  0  0
    4.1459    2.3493   -0.7714 O   0  0  0  0  0  0  0  0  0  0  0  0
    3.8885   -1.5397    0.6205 C   0  0  0  0  0  0  0  0  0  0  0  0
    2.6676   -1.9921    0.1873 C   0  0  0  0  0  0  0  0  0  0  0  0
   -3.3788   -1.4699   -1.0582 N   0  0  0  0  0  0  0  0  0  0  0  0
   -3.7496   -0.1414   -0.7104 C   0  0  0  0  0  0  0  0  0  0  0  0
   -3.3044    0.9566   -1.4070 C   0  0  0  0  0  0  0  0  0  0  0  0
   -3.6575    2.2482   -1.0785 C   0  0  0  0  0  0  0  0  0  0  0  0
   -3.1933    3.3437   -1.7998 C   0  0  0  0  0  0  0  0  0  0  0  0
   -3.5790    4.6173   -1.4269 C   0  0  0  0  0  0  0  0  0  0  0  0
   -4.4202    4.7835   -0.3430 C   0  0  0  0  0  0  0  0  0  0  0  0
   -4.8733    3.6652    0.3660 C   0  0  0  0  0  0  0  0  0  0  0  0
   -4.4950    2.3899    0.0030 C   0  0  0  0  0  0  0  0  0  0  0  0
   -4.9528    1.3035    0.7149 C   0  0  0  0  0  0  0  0  0  0  0  0
   -4.5894    0.0189    0.3723 C   0  0  0  0  0  0  0  0  0  0  0  0
   -5.1837   -1.3539    1.2921 S   0  0  0  0  0  6  0  0  0  0  0  0
   -3.8538   -2.2814    2.0012 C   0  0  0  0  0  0  0  0  0  0  0  0
   -6.0064   -0.8100    2.4263 O   0  0  0  0  0  0  0  0  0  0  0  0
   -6.1093   -2.2097    0.4770 O   0  0  0  0  0  0  0  0  0  0  0  0
   -4.1248   -2.4394   -1.5500 N   0  0  0  0  0  0  0  0  0  0  0  0
   -4.9904   -4.8334   -2.4206 H   0  0  0  0  0  0  0  0  0  0  0  0
   -3.3581   -5.0134   -3.2366 H   0  0  0  0  0  0  0  0  0  0  0  0
   -3.6169   -5.6443   -1.5908 H   0  0  0  0  0  0  0  0  0  0  0  0
   -1.2768   -3.9387   -1.3733 H   0  0  0  0  0  0  0  0  0  0  0  0
    0.3160   -2.8376   -0.6397 H   0  0  0  0  0  0  0  0  0  0  0  0
    0.8245    0.7177    0.6423 H   0  0  0  0  0  0  0  0  0  0  0  0
    2.9528    1.5683    1.4430 H   0  0  0  0  0  0  0  0  0  0  0  0
    5.2205   -0.9495    3.3058 H   0  0  0  0  0  0  0  0  0  0  0  0
    7.4105   -0.1699    4.1358 H   0  0  0  0  0  0  0  0  0  0  0  0
    8.7008    1.4148    2.8198 H   0  0  0  0  0  0  0  0  0  0  0  0
    7.8243    2.2553    0.6354 H   0  0  0  0  0  0  0  0  0  0  0  0
    6.2672    3.1383   -2.3797 H   0  0  0  0  0  0  0  0  0  0  0  0
    6.8406    3.5752   -0.8515 H   0  0  0  0  0  0  0  0  0  0  0  0
    4.7768   -2.1646    0.6241 H   0  0  0  0  0  0  0  0  0  0  0  0
    2.5968   -3.0086   -0.1613 H   0  0  0  0  0  0  0  0  0  0  0  0
   -2.6447    0.8100   -2.2554 H   0  0  0  0  0  0  0  0  0  0  0  0
   -2.5378    3.1765   -2.6406 H   0  0  0  0  0  0  0  0  0  0  0  0
   -3.2410    5.4998   -1.9609 H   0  0  0  0  0  0  0  0  0  0  0  0
   -4.7467    5.7679   -0.0176 H   0  0  0  0  0  0  0  0  0  0  0  0
   -5.5332    3.7685    1.2192 H   0  0  0  0  0  0  0  0  0  0  0  0
   -5.6259    1.4394    1.5820 H   0  0  0  0  0  0  0  0  0  0  0  0
   -3.5127   -3.1052    1.3662 H   0  0  0  0  0  0  0  0  0  0  0  0
   -3.0346   -1.5626    2.2216 H   0  0  0  0  0  0  0  0  0  0  0  0
   -4.1421   -2.7178    2.9924 H   0  0  0  0  0  0  0  0  0  0  0  0
  1  2  1  0
  2  3  1  0
  3  4  2  0
  4  5  1  0
  5  6  2  0
  5  7  1  0
  7  8  1  0
  8  9  2  0
  9 10  1  0
 10 11  2  0
 11 12  1  0
 12 13  2  0
 13 14  1  0
 14 15  2  0
 15 16  1  0
 16 17  2  0
 17 18  1  0
 18 19  1  0
 18 20  2  0
 18 21  2  0
 11 22  1  0
 22 23  2  0
  4 24  1  0
 24 25  1  0
 25 26  2  0
 26 27  1  0
 27 28  2  0
 28 29  1  0
 29 30  2  0
 30 31  1  0
 31 32  2  0
 32 33  1  0
 33 34  2  0
 34 35  1  0
 35 36  1  0
 35 37  2  0
 35 38  2  0
 24 39  1  0
 39  2  2  0
 23  8  1  0
 34 25  1  0
 17 12  1  0
 32 27  1  0
  1 40  1  0
  1 41  1  0
  1 42  1  0
  3 43  1  0
  7 44  1  0
  9 45  1  0
 10 46  1  0
 13 47  1  0
 14 48  1  0
 15 49  1  0
 16 50  1  0
 19 51  1  0
 19 52  1  0
 22 53  1  0
 23 54  1  0
 26 55  1  0
 28 56  1  0
 29 57  1  0
 30 58  1  0
 31 59  1  0
 33 60  1  0
 36 61  1  0
 36 62  1  0
 36 63  1  0
M  END
$$$$
