@<TRIPOS>MOLECULE
*****
 35 36 0 0 0
SMALL
GASTEIGER

@<TRIPOS>ATOM
      1 O           7.4398    0.6019   -1.1607 O.3     1  UNL1       -0.5068
      2 C           6.1025    0.4400   -0.8623 C.ar    1  UNL1        0.1169
      3 C           5.3131   -0.6775   -1.1356 C.ar    1  UNL1       -0.0196
      4 C           3.9825   -0.6956   -0.7759 C.ar    1  UNL1       -0.0496
      5 C           3.4384    0.4019   -0.1429 C.ar    1  UNL1       -0.0036
      6 C           2.0279    0.3660    0.2311 C.2     1  UNL1        0.0743
      7 N           1.2470   -0.6128    0.0165 N.2     1  UNL1       -0.0822
      8 O          -0.0777   -0.6419    0.3698 O.3     1  UNL1       -0.3170
      9 C          -1.0877   -0.5219   -0.5825 C.2     1  UNL1        0.3387
     10 O          -0.9904   -0.3754   -1.8479 O.2     1  UNL1       -0.2480
     11 C          -2.4476   -0.5759   -0.0124 C.3     1  UNL1        0.0588
     12 C          -2.6599    0.5591    0.9982 C.3     1  UNL1       -0.0400
     13 C          -3.8250    0.1001    1.8305 C.3     1  UNL1       -0.0523
     14 C          -4.9674   -0.4322    1.0472 C.3     1  UNL1       -0.0530
     15 C          -4.8636   -0.4183   -0.4313 C.3     1  UNL1       -0.0523
     16 C          -3.5189   -0.3367   -1.0448 C.3     1  UNL1       -0.0400
     17 C           4.1655    1.5343    0.1542 C.ar    1  UNL1       -0.0496
     18 C           5.4931    1.5050   -0.2256 C.ar    1  UNL1       -0.0196
     19 H           8.0933    0.9446   -0.4460 H       1  UNL1        0.2921
     20 H           5.8431   -1.4920   -1.6402 H       1  UNL1        0.0654
     21 H           3.4066   -1.5848   -1.0078 H       1  UNL1        0.0625
     22 H           1.5485    1.1967    0.7289 H       1  UNL1        0.0869
     23 H          -2.6688   -1.5543    0.4641 H       1  UNL1        0.0414
     24 H          -1.7598    0.6608    1.6230 H       1  UNL1        0.0273
     25 H          -2.9638    1.4853    0.4672 H       1  UNL1        0.0273
     26 H          -4.1044    0.9892    2.4636 H       1  UNL1        0.0265
     27 H          -3.4244   -0.6361    2.5600 H       1  UNL1        0.0265
     28 H          -5.1899   -1.4658    1.4294 H       1  UNL1        0.0265
     29 H          -5.8756    0.1554    1.3383 H       1  UNL1        0.0265
     30 H          -5.4756    0.4273   -0.8653 H       1  UNL1        0.0265
     31 H          -5.3521   -1.3360   -0.8350 H       1  UNL1        0.0265
     32 H          -3.2964    0.6760   -1.4899 H       1  UNL1        0.0273
     33 H          -3.3381   -1.0567   -1.8893 H       1  UNL1        0.0273
     34 H           3.7300    2.3930    0.6521 H       1  UNL1        0.0625
     35 H           6.0558    2.4200    0.0213 H       1  UNL1        0.0654
@<TRIPOS>BOND
     1     1     2    1
     2     2     3   ar
     3     3     4   ar
     4     4     5   ar
     5     5     6    1
     6     6     7    2
     7     7     8    1
     8     8     9    1
     9     9    10    2
    10     9    11    1
    11    11    12    1
    12    12    13    1
    13    13    14    1
    14    14    15    1
    15    15    16    1
    16     5    17   ar
    17    17    18   ar
    18    18     2   ar
    19    16    11    1
    20     1    19    1
    21     3    20    1
    22     4    21    1
    23     6    22    1
    24    11    23    1
    25    12    24    1
    26    12    25    1
    27    13    26    1
    28    13    27    1
    29    14    28    1
    30    14    29    1
    31    15    30    1
    32    15    31    1
    33    16    32    1
    34    16    33    1
    35    17    34    1
    36    18    35    1
