
     RDKit          3D

 53 54  0  0  0  0  0  0  0  0999 V2000
    0.2369   -4.6292    1.1650 C   0  0  0  0  0  0  0  0  0  0  0  0
    1.2263   -4.0929    0.1898 C   0  0  0  0  0  0  0  0  0  0  0  0
    1.3223   -2.7089    0.0988 O   0  0  0  0  0  0  0  0  0  0  0  0
    0.3537   -1.8296   -0.2416 C   0  0  0  0  0  0  0  0  0  0  0  0
   -0.1389   -2.9756   -0.2799 O   0  0  0  0  0  0  0  0  0  0  0  0
    0.2650   -0.3935   -0.3875 C   0  0  0  0  0  0  0  0  0  0  0  0
    1.2722    0.4088   -0.1781 C   0  0  0  0  0  0  0  0  0  0  0  0
    2.6618    0.0349    0.2364 C   0  0  0  0  0  0  0  0  0  0  0  0
    3.5763    0.4415   -0.7035 O   0  0  0  0  0  0  0  0  0  0  0  0
    4.8544    0.1019   -0.3599 C   0  0  0  0  0  0  0  0  0  0  0  0
    5.3274    0.6951    0.9378 C   0  0  0  0  0  0  0  0  0  0  0  0
    5.2960    2.1600    0.8976 N   0  0  0  0  0  0  0  0  0  0  0  0
    0.9623    1.7568   -0.3773 N   0  0  0  0  0  0  0  0  0  0  0  0
   -0.2775    2.3075   -0.7652 C   0  0  0  0  0  0  0  0  0  0  0  0
   -0.5094    3.7673   -0.9524 C   0  0  0  0  0  0  0  0  0  0  0  0
   -1.2628    1.4526   -0.9642 C   0  0  0  0  0  0  0  0  0  0  0  0
   -1.1042   -0.0143   -0.7966 C   0  0  0  0  0  0  0  0  0  0  0  0
   -2.1696   -0.5855    0.0708 C   0  0  0  0  0  0  0  0  0  0  0  0
   -2.8920   -1.7348   -0.1850 C   0  0  0  0  0  0  0  0  0  0  0  0
   -3.8657   -2.1878    0.6806 C   0  0  0  0  0  0  0  0  0  0  0  0
   -4.1667   -1.5098    1.8516 C   0  0  0  0  0  0  0  0  0  0  0  0
   -3.4481   -0.3519    2.1222 C   0  0  0  0  0  0  0  0  0  0  0  0
   -2.4806    0.0777    1.2394 C   0  0  0  0  0  0  0  0  0  0  0  0
   -1.6823    1.5539    1.7493 Cl  0  0  0  0  0  0  0  0  0  0  0  0
   -2.6031    1.8705   -1.3684 C   0  0  0  0  0  0  0  0  0  0  0  0
   -3.6148    1.1557   -1.5865 O   0  0  0  0  0  0  0  0  0  0  0  0
   -2.9961    3.1587   -1.5853 O   0  0  0  0  0  0  0  0  0  0  0  0
   -4.3511    3.3954   -1.9783 C   0  0  0  0  0  0  0  0  0  0  0  0
   -0.6059   -5.0970    0.5766 H   0  0  0  0  0  0  0  0  0  0  0  0
   -0.2118   -3.9150    1.8573 H   0  0  0  0  0  0  0  0  0  0  0  0
    0.6583   -5.4474    1.8047 H   0  0  0  0  0  0  0  0  0  0  0  0
    2.2396   -4.4364    0.5581 H   0  0  0  0  0  0  0  0  0  0  0  0
    1.1494   -4.6139   -0.8081 H   0  0  0  0  0  0  0  0  0  0  0  0
    2.7632   -0.9734    0.6205 H   0  0  0  0  0  0  0  0  0  0  0  0
    2.8443    0.7012    1.1366 H   0  0  0  0  0  0  0  0  0  0  0  0
    5.5911    0.3654   -1.1652 H   0  0  0  0  0  0  0  0  0  0  0  0
    4.9375   -0.9991   -0.2537 H   0  0  0  0  0  0  0  0  0  0  0  0
    4.7164    0.3264    1.7760 H   0  0  0  0  0  0  0  0  0  0  0  0
    6.3710    0.3609    1.1390 H   0  0  0  0  0  0  0  0  0  0  0  0
    6.2523    2.4429    0.5258 H   0  0  0  0  0  0  0  0  0  0  0  0
    4.5559    2.3826    0.1885 H   0  0  0  0  0  0  0  0  0  0  0  0
    1.7358    2.4711   -0.2248 H   0  0  0  0  0  0  0  0  0  0  0  0
   -0.8298    3.9296   -2.0031 H   0  0  0  0  0  0  0  0  0  0  0  0
    0.4381    4.3026   -0.7482 H   0  0  0  0  0  0  0  0  0  0  0  0
   -1.3124    4.1252   -0.2776 H   0  0  0  0  0  0  0  0  0  0  0  0
   -1.2517   -0.4749   -1.8021 H   0  0  0  0  0  0  0  0  0  0  0  0
   -2.6588   -2.2614   -1.0962 H   0  0  0  0  0  0  0  0  0  0  0  0
   -4.3957   -3.1006    0.4161 H   0  0  0  0  0  0  0  0  0  0  0  0
   -4.9403   -1.9200    2.4838 H   0  0  0  0  0  0  0  0  0  0  0  0
   -3.7165    0.1429    3.0451 H   0  0  0  0  0  0  0  0  0  0  0  0
   -4.4605    4.4724   -2.1014 H   0  0  0  0  0  0  0  0  0  0  0  0
   -4.6000    2.9072   -2.9440 H   0  0  0  0  0  0  0  0  0  0  0  0
   -5.0613    2.9844   -1.2334 H   0  0  0  0  0  0  0  0  0  0  0  0
  1  2  1  0
  2  3  1  0
  3  4  1  0
  4  5  2  0
  4  6  1  0
  6  7  2  0
  7  8  1  0
  8  9  1  0
  9 10  1  0
 10 11  1  0
 11 12  1  0
  7 13  1  0
 13 14  1  0
 14 15  1  0
 14 16  2  0
 16 17  1  0
 17 18  1  0
 18 19  2  0
 19 20  1  0
 20 21  2  0
 21 22  1  0
 22 23  2  0
 23 24  1  0
 16 25  1  0
 25 26  2  0
 25 27  1  0
 27 28  1  0
 17  6  1  0
 23 18  1  0
  1 29  1  0
  1 30  1  0
  1 31  1  0
  2 32  1  0
  2 33  1  0
  8 34  1  0
  8 35  1  0
 10 36  1  0
 10 37  1  0
 11 38  1  0
 11 39  1  0
 12 40  1  0
 12 41  1  0
 13 42  1  0
 15 43  1  0
 15 44  1  0
 15 45  1  0
 17 46  1  0
 19 47  1  0
 20 48  1  0
 21 49  1  0
 22 50  1  0
 28 51  1  0
 28 52  1  0
 28 53  1  0
M  END
$$$$
