@<TRIPOS>MOLECULE
*****
 34 36 0 0 0
SMALL
GASTEIGER

@<TRIPOS>ATOM
      1 C          -3.5600   -0.8920    1.1560 C.2     1  UNL1       -0.0733
      2 C          -2.5960   -0.3689    0.4740 C.2     1  UNL1        0.0883
      3 C          -2.7988    0.2998   -0.7991 C.2     1  UNL1       -0.0030
      4 C          -4.0623    1.0524   -0.9889 C.3     1  UNL1       -0.0361
      5 C          -1.8336    0.1901   -1.7204 C.2     1  UNL1        0.0658
      6 C          -2.0778    0.8837   -2.9883 C.2     1  UNL1        0.0863
      7 O          -1.2053    0.7777   -3.8914 O.co2   1  UNL1       -0.5433
      8 O          -3.1804    1.6282   -3.2338 O.co2   1  UNL1       -0.5433
      9 N          -0.6299   -0.5325   -1.5303 N.am    1  UNL1       -0.2384
     10 C           0.5116   -1.0914   -2.1320 C.2     1  UNL1        0.2522
     11 O           0.8685   -1.6590   -3.2087 O.2     1  UNL1       -0.2698
     12 C           1.1922   -0.7023   -0.8578 C.2     1  UNL1        0.0593
     13 C           2.4566   -0.3099   -0.7625 C.2     1  UNL1       -0.0248
     14 C           2.9661    0.0380    0.5336 C.ar    1  UNL1        0.0644
     15 C           4.1673   -0.4694    0.9729 C.ar    1  UNL1       -0.0363
     16 C           4.6805   -0.1005    2.2257 C.ar    1  UNL1       -0.0583
     17 C           3.9444    0.7757    2.9827 C.ar    1  UNL1       -0.0436
     18 C           2.7394    1.2817    2.5387 C.ar    1  UNL1        0.0282
     19 N           2.3125    0.8772    1.3189 N.ar    1  UNL1       -0.2556
     20 C          -0.0603   -1.0263   -0.2912 C.3     1  UNL1        0.1839
     21 S          -0.8878   -0.4476    1.0611 S.O2    1  UNL1        0.0204
     22 O          -0.9242   -1.4874    2.1732 O.2     1  UNL1       -0.1672
     23 O          -0.6381    0.8559    1.6497 O.2     1  UNL1       -0.1672
     24 H          -4.5843   -0.8865    0.8539 H       1  UNL1        0.0554
     25 H          -3.3136   -1.3648    2.1066 H       1  UNL1        0.0554
     26 H          -4.6017    0.6603   -1.8730 H       1  UNL1        0.0279
     27 H          -3.9197    2.1421   -1.1256 H       1  UNL1        0.0279
     28 H          -4.7600    0.8539   -0.1318 H       1  UNL1        0.0279
     29 H           3.1265   -0.2406   -1.6274 H       1  UNL1        0.0644
     30 H           4.7756   -1.1526    0.4042 H       1  UNL1        0.0639
     31 H           5.6267   -0.4791    2.6056 H       1  UNL1        0.0619
     32 H           4.3075    1.0976    3.9766 H       1  UNL1        0.0633
     33 H           2.1579    1.9772    3.1422 H       1  UNL1        0.0830
     34 H          -0.1996   -2.1808   -0.3681 H       1  UNL1        0.0807
@<TRIPOS>UNITY_ATOM_ATTR
8 1
charge -1
@<TRIPOS>BOND
     1     1     2    2
     2     2     3    1
     3     3     4    1
     4     3     5    2
     5     5     6    1
     6     6     7   ar
     7     6     8   ar
     8     5     9    1
     9     9    10   am
    10    10    11    2
    11    10    12    1
    12    12    13    2
    13    13    14    1
    14    14    15   ar
    15    15    16   ar
    16    16    17   ar
    17    17    18   ar
    18    18    19   ar
    19    12    20    1
    20    20    21    1
    21    21    22    2
    22    21    23    2
    23    21     2    1
    24    20     9    1
    25    19    14   ar
    26     1    24    1
    27     1    25    1
    28     4    26    1
    29     4    27    1
    30     4    28    1
    31    13    29    1
    32    15    30    1
    33    16    31    1
    34    17    32    1
    35    18    33    1
    36    20    34    1
