@<TRIPOS>MOLECULE
*****
 51 55 0 0 0
SMALL
GASTEIGER

@<TRIPOS>ATOM
      1 N          -3.7159   -3.5126    0.0763 N.pl3   1  UNL1       -0.3414
      2 C          -2.4123   -3.0579    0.2676 C.ar    1  UNL1        0.1443
      3 N          -1.4711   -3.9817    0.6336 N.ar    1  UNL1       -0.2172
      4 C          -0.2239   -3.6642    0.9279 C.ar    1  UNL1        0.1388
      5 N           0.1136   -2.3764    0.8597 N.ar    1  UNL1       -0.1543
      6 N          -0.7562   -1.4499    0.5113 N.ar    1  UNL1       -0.2268
      7 C          -0.5663   -0.1293    0.4376 C.ar    1  UNL1        0.0741
      8 C           0.6789    0.5831    0.7024 C.ar    1  UNL1        0.0022
      9 C           0.7232    1.7380    1.4646 C.ar    1  UNL1       -0.0525
     10 C           1.9113    2.3878    1.6968 C.ar    1  UNL1       -0.0594
     11 C           3.1083    1.9322    1.1907 C.ar    1  UNL1       -0.0402
     12 C           3.0852    0.7835    0.4291 C.ar    1  UNL1        0.0370
     13 N           4.3054    0.3068   -0.0949 N.am    1  UNL1       -0.2673
     14 C           5.1117   -0.6203    0.6526 C.3     1  UNL1        0.0433
     15 C           6.5338   -0.5238    0.1017 C.3     1  UNL1        0.0644
     16 O           6.4859   -0.8592   -1.2488 O.3     1  UNL1       -0.3690
     17 C           5.9833    0.1986   -2.0010 C.3     1  UNL1        0.1242
     18 C           4.7320    0.7492   -1.3660 C.2     1  UNL1        0.2456
     19 O           4.1174    1.6157   -2.0520 O.2     1  UNL1       -0.2727
     20 C           1.8743    0.1283    0.1972 C.ar    1  UNL1       -0.0311
     21 C          -1.7638    0.4271    0.0653 C.ar    1  UNL1       -0.0243
     22 C          -2.7426   -0.5574   -0.1044 C.ar    1  UNL1        0.0308
     23 C          -4.1497   -0.3218   -0.3991 C.ar    1  UNL1        0.0714
     24 C          -5.1712   -1.1617   -0.7371 C.ar    1  UNL1       -0.0162
     25 C          -6.4051   -0.4864   -0.7196 C.ar    1  UNL1        0.0500
     26 N          -6.0973    0.7321   -0.3791 N.ar    1  UNL1       -0.1788
     27 N          -4.7679    0.8792   -0.1793 N.ar    1  UNL1       -0.2550
     28 C          -4.1958    2.1538    0.1786 C.3     1  UNL1        0.1371
     29 C          -3.9319    3.0430   -1.0252 C.3     1  UNL1        0.4089
     30 F          -3.3679    4.2133   -0.5572 F       1  UNL1       -0.1687
     31 F          -3.1975    2.4823   -2.0143 F       1  UNL1       -0.1687
     32 F          -5.1608    3.4051   -1.6067 F       1  UNL1       -0.1687
     33 C          -2.0761   -1.7334    0.1897 C.ar    1  UNL1        0.1146
     34 H          -4.4305   -3.3539    0.8120 H       1  UNL1        0.1438
     35 H          -3.9952   -4.0432   -0.7763 H       1  UNL1        0.1438
     36 H           0.5249   -4.4289    1.2220 H       1  UNL1        0.1066
     37 H          -0.1782    2.1481    1.8904 H       1  UNL1        0.0624
     38 H           1.9106    3.2997    2.3047 H       1  UNL1        0.0618
     39 H           4.0533    2.4307    1.3632 H       1  UNL1        0.0636
     40 H           4.7078   -1.6353    0.4690 H       1  UNL1        0.0491
     41 H           5.1726   -0.4013    1.7279 H       1  UNL1        0.0491
     42 H           6.8575    0.5409    0.2249 H       1  UNL1        0.0576
     43 H           7.2395   -1.1556    0.6605 H       1  UNL1        0.0576
     44 H           6.7474    1.0015   -2.1067 H       1  UNL1        0.0657
     45 H           5.7776   -0.1748   -3.0288 H       1  UNL1        0.0657
     46 H           1.9428   -0.7725   -0.4148 H       1  UNL1        0.0643
     47 H          -1.8658    1.4682   -0.0860 H       1  UNL1        0.0646
     48 H          -5.1266   -2.1874   -1.0654 H       1  UNL1        0.0654
     49 H          -7.3476   -0.9695   -0.9543 H       1  UNL1        0.0848
     50 H          -3.4841    2.1816    0.9816 H       1  UNL1        0.0598
     51 H          -5.0969    2.7285    0.6781 H       1  UNL1        0.0598
@<TRIPOS>BOND
     1     1     2    1
     2     2     3   ar
     3     3     4   ar
     4     4     5   ar
     5     5     6   ar
     6     6     7   ar
     7     7     8    1
     8     8     9   ar
     9     9    10   ar
    10    10    11   ar
    11    11    12   ar
    12    12    13    1
    13    13    14    1
    14    14    15    1
    15    15    16    1
    16    16    17    1
    17    17    18    1
    18    18    19    2
    19    12    20   ar
    20     7    21   ar
    21    21    22   ar
    22    22    23    1
    23    23    24   ar
    24    24    25   ar
    25    25    26   ar
    26    26    27   ar
    27    27    28    1
    28    28    29    1
    29    29    30    1
    30    29    31    1
    31    29    32    1
    32    22    33   ar
    33    33     2   ar
    34    33     6   ar
    35    20     8   ar
    36    27    23   ar
    37    18    13   am
    38     1    34    1
    39     1    35    1
    40     4    36    1
    41     9    37    1
    42    10    38    1
    43    11    39    1
    44    14    40    1
    45    14    41    1
    46    15    42    1
    47    15    43    1
    48    17    44    1
    49    17    45    1
    50    20    46    1
    51    21    47    1
    52    24    48    1
    53    25    49    1
    54    28    50    1
    55    28    51    1
