@<TRIPOS>MOLECULE
*****
 45 47 0 0 0
SMALL
GASTEIGER

@<TRIPOS>ATOM
      1 C          -5.5621   -0.8972   -0.3668 C.3     1  UNL1       -0.0507
      2 C          -4.1055   -0.6187   -0.7433 C.3     1  UNL1        0.0184
      3 N          -3.7687    0.7565   -0.5305 N.3     1  UNL1       -0.1699
      4 C          -4.8490    1.6579   -0.8132 C.3     1  UNL1        0.0099
      5 S          -2.9946    1.0023    0.9397 S.O2    1  UNL1        0.0970
      6 O          -3.3074   -0.2101    1.8235 O.2     1  UNL1       -0.1411
      7 O          -3.5177    2.2004    1.6988 O.2     1  UNL1       -0.1411
      8 N          -1.2933    1.1543    0.9043 N.3     1  UNL1       -0.1766
      9 C          -0.6910    0.0040    0.4187 C.3     1  UNL1        0.0332
     10 C           0.4534    0.1759   -0.5932 C.3     1  UNL1       -0.0171
     11 C           0.9215   -1.1547    0.0166 C.3     1  UNL1        0.0275
     12 N           2.2615   -1.5284   -0.1575 N.pl3   1  UNL1       -0.3145
     13 C           2.7577   -2.7432    0.4477 C.3     1  UNL1        0.0023
     14 C           3.1533   -0.7379   -0.9335 C.ar    1  UNL1        0.1337
     15 N           3.3455   -1.1446   -2.2297 N.ar    1  UNL1       -0.2200
     16 C           4.1251   -0.4476   -3.0246 C.ar    1  UNL1        0.1204
     17 N           4.7277    0.6532   -2.5692 N.ar    1  UNL1       -0.2178
     18 C           4.5913    1.1112   -1.3241 C.ar    1  UNL1        0.1432
     19 N           5.0581    2.1314   -0.6097 N.ar    1  UNL1       -0.3457
     20 C           4.5910    2.1032    0.6408 C.ar    1  UNL1        0.0042
     21 C           3.7580    0.9890    0.7633 C.ar    1  UNL1       -0.0318
     22 C           3.7650    0.3819   -0.4628 C.ar    1  UNL1        0.0585
     23 C           0.4299   -0.5943    1.3194 C.3     1  UNL1       -0.0171
     24 H          -5.7882   -1.9655   -0.5476 H       1  UNL1        0.0243
     25 H          -6.2193   -0.2852   -1.0079 H       1  UNL1        0.0243
     26 H          -5.7758   -0.6682    0.6758 H       1  UNL1        0.0243
     27 H          -3.9393   -0.9509   -1.7716 H       1  UNL1        0.0441
     28 H          -3.5295   -1.2714   -0.0574 H       1  UNL1        0.0441
     29 H          -5.2023    1.4385   -1.8456 H       1  UNL1        0.0408
     30 H          -4.4752    2.6857   -0.7077 H       1  UNL1        0.0408
     31 H          -5.7271    1.5277   -0.1438 H       1  UNL1        0.0408
     32 H          -0.9044    1.6447    1.7103 H       1  UNL1        0.1494
     33 H          -1.3348   -0.8117    0.1387 H       1  UNL1        0.0479
     34 H           0.1480    0.1114   -1.6365 H       1  UNL1        0.0299
     35 H           1.0939    1.0160   -0.3361 H       1  UNL1        0.0299
     36 H           0.1699   -1.9587   -0.2898 H       1  UNL1        0.0501
     37 H           2.9379   -2.6021    1.5414 H       1  UNL1        0.0428
     38 H           3.6479   -3.1455   -0.0794 H       1  UNL1        0.0428
     39 H           1.9922   -3.5716    0.3861 H       1  UNL1        0.0428
     40 H           4.3162   -0.7263   -4.0751 H       1  UNL1        0.1048
     41 H           5.7080    2.8721   -0.9605 H       1  UNL1        0.1668
     42 H           4.8141    2.8198    1.4361 H       1  UNL1        0.0807
     43 H           3.2292    0.6681    1.6422 H       1  UNL1        0.0640
     44 H           0.9635    0.2600    1.7490 H       1  UNL1        0.0299
     45 H           0.0252   -1.3316    2.0385 H       1  UNL1        0.0299
@<TRIPOS>BOND
     1     1     2    1
     2     2     3    1
     3     3     4    1
     4     3     5    1
     5     5     6    2
     6     5     7    2
     7     5     8    1
     8     8     9    1
     9     9    10    1
    10    10    11    1
    11    11    12    1
    12    12    13    1
    13    12    14    1
    14    14    15   ar
    15    15    16   ar
    16    16    17   ar
    17    17    18   ar
    18    18    19   ar
    19    19    20   ar
    20    20    21   ar
    21    21    22   ar
    22    11    23    1
    23    23     9    1
    24    22    14   ar
    25    22    18   ar
    26     1    24    1
    27     1    25    1
    28     1    26    1
    29     2    27    1
    30     2    28    1
    31     4    29    1
    32     4    30    1
    33     4    31    1
    34     8    32    1
    35     9    33    1
    36    10    34    1
    37    10    35    1
    38    11    36    1
    39    13    37    1
    40    13    38    1
    41    13    39    1
    42    16    40    1
    43    19    41    1
    44    20    42    1
    45    21    43    1
    46    23    44    1
    47    23    45    1
