
     RDKit          3D

 45 47  0  0  0  0  0  0  0  0999 V2000
   -5.5621   -0.8972   -0.3668 C   0  0  0  0  0  0  0  0  0  0  0  0
   -4.1055   -0.6187   -0.7433 C   0  0  0  0  0  0  0  0  0  0  0  0
   -3.7687    0.7565   -0.5305 N   0  0  0  0  0  0  0  0  0  0  0  0
   -4.8490    1.6579   -0.8132 C   0  0  0  0  0  0  0  0  0  0  0  0
   -2.9946    1.0023    0.9397 S   0  0  0  0  0  6  0  0  0  0  0  0
   -3.3074   -0.2101    1.8235 O   0  0  0  0  0  0  0  0  0  0  0  0
   -3.5177    2.2004    1.6988 O   0  0  0  0  0  0  0  0  0  0  0  0
   -1.2933    1.1543    0.9043 N   0  0  0  0  0  0  0  0  0  0  0  0
   -0.6910    0.0040    0.4187 C   0  0  1  0  0  0  0  0  0  0  0  0
    0.4534    0.1759   -0.5932 C   0  0  0  0  0  0  0  0  0  0  0  0
    0.9215   -1.1547    0.0166 C   0  0  1  0  0  0  0  0  0  0  0  0
    2.2615   -1.5284   -0.1575 N   0  0  0  0  0  0  0  0  0  0  0  0
    2.7577   -2.7432    0.4477 C   0  0  0  0  0  0  0  0  0  0  0  0
    3.1533   -0.7379   -0.9335 C   0  0  0  0  0  0  0  0  0  0  0  0
    3.3455   -1.1446   -2.2297 N   0  0  0  0  0  0  0  0  0  0  0  0
    4.1251   -0.4476   -3.0246 C   0  0  0  0  0  0  0  0  0  0  0  0
    4.7277    0.6532   -2.5692 N   0  0  0  0  0  0  0  0  0  0  0  0
    4.5913    1.1112   -1.3241 C   0  0  0  0  0  0  0  0  0  0  0  0
    5.0581    2.1314   -0.6097 N   0  0  0  0  0  0  0  0  0  0  0  0
    4.5910    2.1032    0.6408 C   0  0  0  0  0  0  0  0  0  0  0  0
    3.7580    0.9890    0.7633 C   0  0  0  0  0  0  0  0  0  0  0  0
    3.7650    0.3819   -0.4628 C   0  0  0  0  0  0  0  0  0  0  0  0
    0.4299   -0.5943    1.3194 C   0  0  0  0  0  0  0  0  0  0  0  0
   -5.7882   -1.9655   -0.5476 H   0  0  0  0  0  0  0  0  0  0  0  0
   -6.2193   -0.2852   -1.0079 H   0  0  0  0  0  0  0  0  0  0  0  0
   -5.7758   -0.6682    0.6758 H   0  0  0  0  0  0  0  0  0  0  0  0
   -3.9393   -0.9509   -1.7716 H   0  0  0  0  0  0  0  0  0  0  0  0
   -3.5295   -1.2714   -0.0574 H   0  0  0  0  0  0  0  0  0  0  0  0
   -5.2023    1.4385   -1.8456 H   0  0  0  0  0  0  0  0  0  0  0  0
   -4.4752    2.6857   -0.7077 H   0  0  0  0  0  0  0  0  0  0  0  0
   -5.7271    1.5277   -0.1438 H   0  0  0  0  0  0  0  0  0  0  0  0
   -0.9044    1.6447    1.7103 H   0  0  0  0  0  0  0  0  0  0  0  0
   -1.3348   -0.8117    0.1387 H   0  0  0  0  0  0  0  0  0  0  0  0
    0.1480    0.1114   -1.6365 H   0  0  0  0  0  0  0  0  0  0  0  0
    1.0939    1.0160   -0.3361 H   0  0  0  0  0  0  0  0  0  0  0  0
    0.1699   -1.9587   -0.2898 H   0  0  0  0  0  0  0  0  0  0  0  0
    2.9379   -2.6021    1.5414 H   0  0  0  0  0  0  0  0  0  0  0  0
    3.6479   -3.1455   -0.0794 H   0  0  0  0  0  0  0  0  0  0  0  0
    1.9922   -3.5716    0.3861 H   0  0  0  0  0  0  0  0  0  0  0  0
    4.3162   -0.7263   -4.0751 H   0  0  0  0  0  0  0  0  0  0  0  0
    5.7080    2.8721   -0.9605 H   0  0  0  0  0  0  0  0  0  0  0  0
    4.8141    2.8198    1.4361 H   0  0  0  0  0  0  0  0  0  0  0  0
    3.2292    0.6681    1.6422 H   0  0  0  0  0  0  0  0  0  0  0  0
    0.9635    0.2600    1.7490 H   0  0  0  0  0  0  0  0  0  0  0  0
    0.0252   -1.3316    2.0385 H   0  0  0  0  0  0  0  0  0  0  0  0
  1  2  1  0
  2  3  1  0
  3  4  1  0
  3  5  1  0
  5  6  2  0
  5  7  2  0
  5  8  1  0
  8  9  1  0
  9 10  1  0
 10 11  1  0
 11 12  1  0
 12 13  1  0
 12 14  1  0
 14 15  2  0
 15 16  1  0
 16 17  2  0
 17 18  1  0
 18 19  1  0
 19 20  1  0
 20 21  2  0
 21 22  1  0
 11 23  1  0
 23  9  1  0
 22 14  1  0
 22 18  2  0
  1 24  1  0
  1 25  1  0
  1 26  1  0
  2 27  1  0
  2 28  1  0
  4 29  1  0
  4 30  1  0
  4 31  1  0
  8 32  1  0
  9 33  1  6
 10 34  1  0
 10 35  1  0
 11 36  1  6
 13 37  1  0
 13 38  1  0
 13 39  1  0
 16 40  1  0
 19 41  1  0
 20 42  1  0
 21 43  1  0
 23 44  1  0
 23 45  1  0
M  END
$$$$
