@<TRIPOS>MOLECULE
*****
 47 49 0 0 0
SMALL
GASTEIGER

@<TRIPOS>ATOM
      1 F           2.4982    4.0330   -1.2906 F       1  UNL1       -0.1659
      2 C           3.3275    3.4859   -0.3536 C.3     1  UNL1        0.4174
      3 F           3.0578    3.9593    0.9262 F       1  UNL1       -0.1659
      4 F           4.6632    3.7793   -0.6022 F       1  UNL1       -0.1659
      5 C           3.1987    1.9974   -0.2828 C.ar    1  UNL1        0.0557
      6 C           2.1386    1.3801    0.3440 C.ar    1  UNL1       -0.0447
      7 C           1.9915    0.0149    0.4261 C.ar    1  UNL1       -0.0209
      8 C           0.8207   -0.5799    1.1187 C.3     1  UNL1        0.0731
      9 O          -0.2473   -0.7861    0.2616 O.3     1  UNL1       -0.3701
     10 C          -1.2904   -1.3407    0.9882 C.3     1  UNL1        0.0785
     11 C          -1.6613   -2.7315    0.4868 C.3     1  UNL1       -0.0236
     12 C          -2.5969   -3.3129    1.5550 C.3     1  UNL1       -0.0380
     13 C          -3.8088   -2.4028    1.6033 C.3     1  UNL1       -0.0034
     14 N          -3.7322   -1.3139    0.6746 N.3     1  UNL1       -0.3073
     15 C          -2.5516   -0.5087    0.9164 C.3     1  UNL1        0.0594
     16 C          -2.4501    0.5746   -0.0850 C.ar    1  UNL1       -0.0280
     17 C          -2.6545    0.3727   -1.4413 C.ar    1  UNL1       -0.0570
     18 C          -2.5500    1.4183   -2.3540 C.ar    1  UNL1       -0.0615
     19 C          -2.2394    2.6881   -1.9331 C.ar    1  UNL1       -0.0617
     20 C          -2.0340    2.9073   -0.5986 C.ar    1  UNL1       -0.0615
     21 C          -2.1376    1.8812    0.2887 C.ar    1  UNL1       -0.0570
     22 C           2.9834   -0.7597   -0.1657 C.ar    1  UNL1       -0.0447
     23 C           4.0575   -0.1908   -0.8010 C.ar    1  UNL1        0.0557
     24 C           5.1378   -0.9702   -1.4453 C.3     1  UNL1        0.4174
     25 F           5.7679   -0.2559   -2.4419 F       1  UNL1       -0.1659
     26 F           4.7160   -2.1785   -1.9288 F       1  UNL1       -0.1659
     27 F           6.0896   -1.2194   -0.4557 F       1  UNL1       -0.1659
     28 C           4.1611    1.1930   -0.8572 C.ar    1  UNL1       -0.0385
     29 H           1.3915    2.0304    0.7899 H       1  UNL1        0.0626
     30 H           1.1408   -1.5681    1.5162 H       1  UNL1        0.0610
     31 H           0.5681    0.1084    1.9560 H       1  UNL1        0.0610
     32 H          -1.0094   -1.4775    2.0600 H       1  UNL1        0.0615
     33 H          -0.7863   -3.3880    0.3811 H       1  UNL1        0.0291
     34 H          -2.1745   -2.6865   -0.4895 H       1  UNL1        0.0291
     35 H          -2.0572   -3.1931    2.5353 H       1  UNL1        0.0278
     36 H          -2.8444   -4.3587    1.3537 H       1  UNL1        0.0278
     37 H          -3.9904   -2.0030    2.6326 H       1  UNL1        0.0424
     38 H          -4.6838   -3.0425    1.3371 H       1  UNL1        0.0424
     39 H          -3.8771   -1.5686   -0.3049 H       1  UNL1        0.1226
     40 H          -2.7321   -0.0029    1.9104 H       1  UNL1        0.0536
     41 H          -2.8965   -0.5947   -1.8063 H       1  UNL1        0.0621
     42 H          -2.7115    1.2548   -3.4190 H       1  UNL1        0.0618
     43 H          -2.1514    3.5231   -2.6243 H       1  UNL1        0.0618
     44 H          -1.7888    3.9003   -0.2501 H       1  UNL1        0.0618
     45 H          -1.9659    2.0962    1.3506 H       1  UNL1        0.0621
     46 H           2.9188   -1.8293   -0.1314 H       1  UNL1        0.0626
     47 H           4.9946    1.6655   -1.3501 H       1  UNL1        0.0629
@<TRIPOS>BOND
     1     1     2    1
     2     2     3    1
     3     2     4    1
     4     2     5    1
     5     5     6   ar
     6     6     7   ar
     7     7     8    1
     8     8     9    1
     9     9    10    1
    10    10    11    1
    11    11    12    1
    12    12    13    1
    13    13    14    1
    14    14    15    1
    15    15    16    1
    16    16    17   ar
    17    17    18   ar
    18    18    19   ar
    19    19    20   ar
    20    20    21   ar
    21     7    22   ar
    22    22    23   ar
    23    23    24    1
    24    24    25    1
    25    24    26    1
    26    24    27    1
    27    23    28   ar
    28    28     5   ar
    29    15    10    1
    30    21    16   ar
    31     6    29    1
    32     8    30    1
    33     8    31    1
    34    10    32    1
    35    11    33    1
    36    11    34    1
    37    12    35    1
    38    12    36    1
    39    13    37    1
    40    13    38    1
    41    14    39    1
    42    15    40    1
    43    17    41    1
    44    18    42    1
    45    19    43    1
    46    20    44    1
    47    21    45    1
    48    22    46    1
    49    28    47    1
