
     RDKit          3D

 47 49  0  0  0  0  0  0  0  0999 V2000
    2.4982    4.0330   -1.2906 F   0  0  0  0  0  0  0  0  0  0  0  0
    3.3275    3.4859   -0.3536 C   0  0  0  0  0  0  0  0  0  0  0  0
    3.0578    3.9593    0.9262 F   0  0  0  0  0  0  0  0  0  0  0  0
    4.6632    3.7793   -0.6022 F   0  0  0  0  0  0  0  0  0  0  0  0
    3.1987    1.9974   -0.2828 C   0  0  0  0  0  0  0  0  0  0  0  0
    2.1386    1.3801    0.3440 C   0  0  0  0  0  0  0  0  0  0  0  0
    1.9915    0.0149    0.4261 C   0  0  0  0  0  0  0  0  0  0  0  0
    0.8207   -0.5799    1.1187 C   0  0  0  0  0  0  0  0  0  0  0  0
   -0.2473   -0.7861    0.2616 O   0  0  0  0  0  0  0  0  0  0  0  0
   -1.2904   -1.3407    0.9882 C   0  0  2  0  0  0  0  0  0  0  0  0
   -1.6613   -2.7315    0.4868 C   0  0  0  0  0  0  0  0  0  0  0  0
   -2.5969   -3.3129    1.5550 C   0  0  0  0  0  0  0  0  0  0  0  0
   -3.8088   -2.4028    1.6033 C   0  0  0  0  0  0  0  0  0  0  0  0
   -3.7322   -1.3139    0.6746 N   0  0  0  0  0  0  0  0  0  0  0  0
   -2.5516   -0.5087    0.9164 C   0  0  2  0  0  0  0  0  0  0  0  0
   -2.4501    0.5746   -0.0850 C   0  0  0  0  0  0  0  0  0  0  0  0
   -2.6545    0.3727   -1.4413 C   0  0  0  0  0  0  0  0  0  0  0  0
   -2.5500    1.4183   -2.3540 C   0  0  0  0  0  0  0  0  0  0  0  0
   -2.2394    2.6881   -1.9331 C   0  0  0  0  0  0  0  0  0  0  0  0
   -2.0340    2.9073   -0.5986 C   0  0  0  0  0  0  0  0  0  0  0  0
   -2.1376    1.8812    0.2887 C   0  0  0  0  0  0  0  0  0  0  0  0
    2.9834   -0.7597   -0.1657 C   0  0  0  0  0  0  0  0  0  0  0  0
    4.0575   -0.1908   -0.8010 C   0  0  0  0  0  0  0  0  0  0  0  0
    5.1378   -0.9702   -1.4453 C   0  0  0  0  0  0  0  0  0  0  0  0
    5.7679   -0.2559   -2.4419 F   0  0  0  0  0  0  0  0  0  0  0  0
    4.7160   -2.1785   -1.9288 F   0  0  0  0  0  0  0  0  0  0  0  0
    6.0896   -1.2194   -0.4557 F   0  0  0  0  0  0  0  0  0  0  0  0
    4.1611    1.1930   -0.8572 C   0  0  0  0  0  0  0  0  0  0  0  0
    1.3915    2.0304    0.7899 H   0  0  0  0  0  0  0  0  0  0  0  0
    1.1408   -1.5681    1.5162 H   0  0  0  0  0  0  0  0  0  0  0  0
    0.5681    0.1084    1.9560 H   0  0  0  0  0  0  0  0  0  0  0  0
   -1.0094   -1.4775    2.0600 H   0  0  0  0  0  0  0  0  0  0  0  0
   -0.7863   -3.3880    0.3811 H   0  0  0  0  0  0  0  0  0  0  0  0
   -2.1745   -2.6865   -0.4895 H   0  0  0  0  0  0  0  0  0  0  0  0
   -2.0572   -3.1931    2.5353 H   0  0  0  0  0  0  0  0  0  0  0  0
   -2.8444   -4.3587    1.3537 H   0  0  0  0  0  0  0  0  0  0  0  0
   -3.9904   -2.0030    2.6326 H   0  0  0  0  0  0  0  0  0  0  0  0
   -4.6838   -3.0425    1.3371 H   0  0  0  0  0  0  0  0  0  0  0  0
   -3.8771   -1.5686   -0.3049 H   0  0  0  0  0  0  0  0  0  0  0  0
   -2.7321   -0.0029    1.9104 H   0  0  0  0  0  0  0  0  0  0  0  0
   -2.8965   -0.5947   -1.8063 H   0  0  0  0  0  0  0  0  0  0  0  0
   -2.7115    1.2548   -3.4190 H   0  0  0  0  0  0  0  0  0  0  0  0
   -2.1514    3.5231   -2.6243 H   0  0  0  0  0  0  0  0  0  0  0  0
   -1.7888    3.9003   -0.2501 H   0  0  0  0  0  0  0  0  0  0  0  0
   -1.9659    2.0962    1.3506 H   0  0  0  0  0  0  0  0  0  0  0  0
    2.9188   -1.8293   -0.1314 H   0  0  0  0  0  0  0  0  0  0  0  0
    4.9946    1.6655   -1.3501 H   0  0  0  0  0  0  0  0  0  0  0  0
  1  2  1  0
  2  3  1  0
  2  4  1  0
  2  5  1  0
  5  6  2  0
  6  7  1  0
  7  8  1  0
  8  9  1  0
  9 10  1  0
 10 11  1  0
 11 12  1  0
 12 13  1  0
 13 14  1  0
 14 15  1  0
 15 16  1  0
 16 17  2  0
 17 18  1  0
 18 19  2  0
 19 20  1  0
 20 21  2  0
  7 22  2  0
 22 23  1  0
 23 24  1  0
 24 25  1  0
 24 26  1  0
 24 27  1  0
 23 28  2  0
 28  5  1  0
 15 10  1  0
 21 16  1  0
  6 29  1  0
  8 30  1  0
  8 31  1  0
 10 32  1  1
 11 33  1  0
 11 34  1  0
 12 35  1  0
 12 36  1  0
 13 37  1  0
 13 38  1  0
 14 39  1  0
 15 40  1  1
 17 41  1  0
 18 42  1  0
 19 43  1  0
 20 44  1  0
 21 45  1  0
 22 46  1  0
 28 47  1  0
M  END
$$$$
