@<TRIPOS>MOLECULE
*****
 63 66 0 0 0
SMALL
GASTEIGER

@<TRIPOS>ATOM
      1 C           7.9278   -0.8653    1.4768 C.3     1  UNL1        0.0086
      2 N           8.2553    0.3468    0.7839 N.3     1  UNL1       -0.1827
      3 C           9.5950    0.8049    0.9876 C.3     1  UNL1        0.0086
      4 S           7.8291    0.2778   -0.8887 S.O2    1  UNL1        0.0604
      5 O           8.3496    1.4916   -1.6029 O.2     1  UNL1       -0.1529
      6 O           8.5928   -0.9051   -1.4688 O.2     1  UNL1       -0.1529
      7 C           6.1175    0.0589   -1.1043 C.ar    1  UNL1        0.1070
      8 C           5.5683   -1.1997   -1.1807 C.ar    1  UNL1       -0.0335
      9 C           4.2194   -1.4166   -1.3510 C.ar    1  UNL1       -0.0372
     10 C           3.3499   -0.3520   -1.4535 C.ar    1  UNL1        0.0510
     11 N           1.9399   -0.5585   -1.6316 N.pl3   1  UNL1       -0.2982
     12 C           1.0242   -0.0603   -0.6722 C.ar    1  UNL1        0.1249
     13 C          -0.3350   -0.2693   -0.8626 C.ar    1  UNL1        0.0031
     14 C          -1.2583    0.1987    0.0465 C.ar    1  UNL1        0.0649
     15 C          -0.7563    0.8686    1.1255 C.ar    1  UNL1        0.0192
     16 C           0.6186    1.0782    1.3148 C.ar    1  UNL1        0.0389
     17 N           1.4585    0.5969    0.3935 N.ar    1  UNL1       -0.2395
     18 C          -1.8009    1.2409    1.8859 C.ar    1  UNL1       -0.0264
     19 C          -2.9747    0.7795    1.2427 C.ar    1  UNL1        0.0637
     20 C          -4.2593    1.0531    1.8615 C.ar    1  UNL1        0.0364
     21 C          -5.5129    0.7497    1.4717 C.ar    1  UNL1        0.0585
     22 N          -6.3850    1.2249    2.4247 N.ar    1  UNL1       -0.1792
     23 N          -5.7497    1.8063    3.3841 N.ar    1  UNL1       -0.2738
     24 C          -6.3019    2.4344    4.5713 C.3     1  UNL1        0.0302
     25 C          -4.4478    1.7269    3.0849 C.ar    1  UNL1        0.0343
     26 N          -2.6311    0.1578    0.1446 N.ar    1  UNL1       -0.2454
     27 C          -3.3928   -0.4950   -0.8231 C.2     1  UNL1        0.4209
     28 O          -2.8018   -1.0235   -1.8579 O.2     1  UNL1       -0.2227
     29 O          -4.7376   -0.7036   -0.8995 O.3     1  UNL1       -0.4424
     30 C          -5.3718   -1.3799   -1.9308 C.3     1  UNL1        0.1070
     31 C          -6.8721   -1.3809   -1.6172 C.3     1  UNL1       -0.0253
     32 C          -5.2080   -0.7220   -3.2788 C.3     1  UNL1       -0.0253
     33 C          -4.9683   -2.8348   -2.0383 C.3     1  UNL1       -0.0253
     34 C           3.8808    0.9193   -1.3793 C.ar    1  UNL1        0.0639
     35 CL          2.8025    2.3092   -1.5062 Cl      1  UNL1       -0.0816
     36 C           5.2447    1.1177   -1.2072 C.ar    1  UNL1       -0.0152
     37 H           8.6803   -1.0064    2.2772 H       1  UNL1        0.0408
     38 H           6.9404   -0.8074    1.9875 H       1  UNL1        0.0408
     39 H           8.0192   -1.7094    0.7826 H       1  UNL1        0.0408
     40 H           9.9581    0.4454    1.9932 H       1  UNL1        0.0408
     41 H          10.2613    0.2850    0.2396 H       1  UNL1        0.0408
     42 H           9.7164    1.8886    0.8579 H       1  UNL1        0.0408
     43 H           6.2489   -2.0368   -1.1004 H       1  UNL1        0.0638
     44 H           3.8715   -2.4365   -1.4008 H       1  UNL1        0.0637
     45 H           1.6378   -1.0755   -2.4738 H       1  UNL1        0.1536
     46 H          -0.6489   -0.8101   -1.7444 H       1  UNL1        0.0673
     47 H           0.9720    1.6046    2.1678 H       1  UNL1        0.0837
     48 H          -1.7395    1.7799    2.7954 H       1  UNL1        0.0645
     49 H          -5.9282    0.2570    0.6300 H       1  UNL1        0.0854
     50 H          -6.9998    3.2265    4.2775 H       1  UNL1        0.0473
     51 H          -6.7689    1.6441    5.1946 H       1  UNL1        0.0473
     52 H          -5.4809    2.8641    5.2029 H       1  UNL1        0.0473
     53 H          -3.6481    2.1229    3.6939 H       1  UNL1        0.0833
     54 H          -7.1496   -0.3146   -1.5045 H       1  UNL1        0.0268
     55 H          -7.4301   -1.9079   -2.3968 H       1  UNL1        0.0268
     56 H          -6.9674   -1.8418   -0.6136 H       1  UNL1        0.0268
     57 H          -6.1696   -0.5810   -3.8128 H       1  UNL1        0.0268
     58 H          -4.5930   -1.3880   -3.9469 H       1  UNL1        0.0268
     59 H          -4.7283    0.2760   -3.2182 H       1  UNL1        0.0268
     60 H          -3.9686   -3.0358   -1.6161 H       1  UNL1        0.0268
     61 H          -5.0332   -3.1492   -3.1005 H       1  UNL1        0.0268
     62 H          -5.6720   -3.5037   -1.4618 H       1  UNL1        0.0268
     63 H           5.6115    2.1346   -1.1550 H       1  UNL1        0.0652
@<TRIPOS>BOND
     1     1     2    1
     2     2     3    1
     3     2     4    1
     4     4     5    2
     5     4     6    2
     6     4     7    1
     7     7     8   ar
     8     8     9   ar
     9     9    10   ar
    10    10    11    1
    11    11    12    1
    12    12    13   ar
    13    13    14   ar
    14    14    15   ar
    15    15    16   ar
    16    16    17   ar
    17    15    18   ar
    18    18    19   ar
    19    19    20    1
    20    20    21   ar
    21    21    22   ar
    22    22    23   ar
    23    23    24    1
    24    23    25   ar
    25    19    26   ar
    26    26    27   am
    27    27    28    2
    28    27    29    1
    29    29    30    1
    30    30    31    1
    31    30    32    1
    32    30    33    1
    33    10    34   ar
    34    34    35    1
    35    34    36   ar
    36    36     7   ar
    37    17    12   ar
    38    25    20   ar
    39    26    14   ar
    40     1    37    1
    41     1    38    1
    42     1    39    1
    43     3    40    1
    44     3    41    1
    45     3    42    1
    46     8    43    1
    47     9    44    1
    48    11    45    1
    49    13    46    1
    50    16    47    1
    51    18    48    1
    52    21    49    1
    53    24    50    1
    54    24    51    1
    55    24    52    1
    56    25    53    1
    57    31    54    1
    58    31    55    1
    59    31    56    1
    60    32    57    1
    61    32    58    1
    62    32    59    1
    63    33    60    1
    64    33    61    1
    65    33    62    1
    66    36    63    1
