@<TRIPOS>MOLECULE
*****
 55 59 0 0 0
SMALL
GASTEIGER

@<TRIPOS>ATOM
      1 O          -1.5455    0.9207   -0.5687 O.2     1  UNL1       -0.2698
      2 C          -1.2789   -0.2971   -0.5641 C.2     1  UNL1        0.2500
      3 N           0.0799   -0.6610   -0.5131 N.am    1  UNL1       -0.2814
      4 C           1.1689    0.2400   -0.4576 C.ar    1  UNL1        0.0342
      5 C           1.0678    1.5944   -0.4341 C.ar    1  UNL1       -0.0404
      6 C           2.2023    2.4146   -0.3811 C.ar    1  UNL1       -0.0594
      7 C           3.4635    1.8757   -0.3509 C.ar    1  UNL1       -0.0539
      8 C           3.5992    0.5054   -0.3730 C.ar    1  UNL1       -0.0141
      9 C           4.9395   -0.0627   -0.3261 C.ar    1  UNL1        0.0080
     10 C           5.2758   -0.9200   -1.3823 C.ar    1  UNL1        0.0359
     11 N           6.4896   -1.4692   -1.4575 N.ar    1  UNL1       -0.2620
     12 C           7.4319   -1.2360   -0.5468 C.ar    1  UNL1        0.0353
     13 C           7.1365   -0.3996    0.5049 C.ar    1  UNL1        0.0008
     14 C           8.0861   -0.1364    1.4818 C.ar    1  UNL1       -0.0526
     15 C           7.7885    0.6917    2.5387 C.ar    1  UNL1       -0.0611
     16 C           6.5438    1.2544    2.6176 C.ar    1  UNL1       -0.0611
     17 C           5.5541    1.0233    1.6636 C.ar    1  UNL1       -0.0534
     18 C           5.8785    0.1922    0.6166 C.ar    1  UNL1       -0.0073
     19 C           2.4769   -0.2808   -0.4252 C.ar    1  UNL1       -0.0327
     20 C          -2.3014   -1.3423   -0.6121 C.ar    1  UNL1        0.0578
     21 C          -1.9799   -2.6396   -0.2817 C.ar    1  UNL1       -0.0478
     22 C          -2.8906   -3.6817   -0.2309 C.ar    1  UNL1       -0.0609
     23 C          -4.2037   -3.4444   -0.5216 C.ar    1  UNL1       -0.0600
     24 C          -4.5641   -2.1620   -0.8570 C.ar    1  UNL1       -0.0401
     25 C          -3.6370   -1.1066   -0.9078 C.ar    1  UNL1        0.0396
     26 N          -4.0735    0.1566   -1.3443 N.pl3   1  UNL1       -0.3391
     27 C          -5.4365    0.5506   -1.6289 C.3     1  UNL1        0.0345
     28 C          -6.2379    0.9273   -0.4670 C.ar    1  UNL1       -0.0276
     29 C          -6.0386    2.2550   -0.0304 C.ar    1  UNL1       -0.0389
     30 C          -6.7677    2.7002    1.0429 C.ar    1  UNL1        0.0279
     31 N          -7.6476    1.8972    1.6633 N.ar    1  UNL1       -0.2632
     32 C          -7.8371    0.6353    1.2478 C.ar    1  UNL1        0.0279
     33 C          -7.1279    0.1157    0.1597 C.ar    1  UNL1       -0.0389
     34 H           0.3418   -1.7107   -0.5320 H       1  UNL1        0.1551
     35 H           0.1345    2.1184   -0.4530 H       1  UNL1        0.0636
     36 H           2.1113    3.4772   -0.3630 H       1  UNL1        0.0618
     37 H           4.3623    2.5089   -0.3202 H       1  UNL1        0.0624
     38 H           4.5510   -1.1477   -2.1536 H       1  UNL1        0.0836
     39 H           8.4142   -1.6750   -0.6005 H       1  UNL1        0.0836
     40 H           9.0622   -0.5880    1.4051 H       1  UNL1        0.0624
     41 H           8.5700    0.8681    3.2821 H       1  UNL1        0.0618
     42 H           6.2790    1.9074    3.4332 H       1  UNL1        0.0618
     43 H           4.5820    1.4773    1.7691 H       1  UNL1        0.0624
     44 H           2.6073   -1.3449   -0.4419 H       1  UNL1        0.0642
     45 H          -0.9426   -2.8643   -0.0294 H       1  UNL1        0.0626
     46 H          -2.5510   -4.6776    0.0397 H       1  UNL1        0.0618
     47 H          -4.9629   -4.2348   -0.4949 H       1  UNL1        0.0618
     48 H          -5.5952   -1.9791   -1.1091 H       1  UNL1        0.0636
     49 H          -3.3424    0.9038   -1.5071 H       1  UNL1        0.1464
     50 H          -5.4631    1.4022   -2.3575 H       1  UNL1        0.0511
     51 H          -5.9513   -0.2787   -2.1607 H       1  UNL1        0.0511
     52 H          -5.3480    2.9247   -0.4974 H       1  UNL1        0.0636
     53 H          -6.6446    3.7285    1.4176 H       1  UNL1        0.0829
     54 H          -8.5326   -0.0461    1.7146 H       1  UNL1        0.0829
     55 H          -7.2968   -0.8801   -0.1684 H       1  UNL1        0.0636
@<TRIPOS>BOND
     1     1     2    2
     2     2     3   am
     3     3     4    1
     4     4     5   ar
     5     5     6   ar
     6     6     7   ar
     7     7     8   ar
     8     8     9    1
     9     9    10   ar
    10    10    11   ar
    11    11    12   ar
    12    12    13   ar
    13    13    14   ar
    14    14    15   ar
    15    15    16   ar
    16    16    17   ar
    17    17    18   ar
    18     8    19   ar
    19     2    20    1
    20    20    21   ar
    21    21    22   ar
    22    22    23   ar
    23    23    24   ar
    24    24    25   ar
    25    25    26    1
    26    26    27    1
    27    27    28    1
    28    28    29   ar
    29    29    30   ar
    30    30    31   ar
    31    31    32   ar
    32    32    33   ar
    33    19     4   ar
    34    25    20   ar
    35    33    28   ar
    36    18     9   ar
    37    18    13   ar
    38     3    34    1
    39     5    35    1
    40     6    36    1
    41     7    37    1
    42    10    38    1
    43    12    39    1
    44    14    40    1
    45    15    41    1
    46    16    42    1
    47    17    43    1
    48    19    44    1
    49    21    45    1
    50    22    46    1
    51    23    47    1
    52    24    48    1
    53    26    49    1
    54    27    50    1
    55    27    51    1
    56    29    52    1
    57    30    53    1
    58    32    54    1
    59    33    55    1
