@<TRIPOS>MOLECULE
*****
 42 45 0 0 0
SMALL
GASTEIGER

@<TRIPOS>ATOM
      1 O           1.4429   -2.1462   -0.0745 O.2     1  UNL1       -0.2667
      2 C           0.7530   -1.1065    0.0219 C.ar    1  UNL1        0.2635
      3 N           1.1976    0.0349   -0.5347 N.ar    1  UNL1       -0.2831
      4 C           0.5499    1.2136   -0.4994 C.ar    1  UNL1        0.0224
      5 C          -0.6672    1.3407    0.1367 C.ar    1  UNL1        0.0177
      6 C          -1.1389    0.1596    0.7191 C.ar    1  UNL1       -0.0382
      7 C          -0.4616   -1.0375    0.6726 C.ar    1  UNL1        0.0489
      8 C          -0.9782   -2.2505    1.2885 C.ar    1  UNL1        0.0047
      9 C          -0.6725   -2.5692    2.6061 C.ar    1  UNL1       -0.0526
     10 C          -1.2116   -3.7469    3.1057 C.ar    1  UNL1       -0.0611
     11 C          -2.0072   -4.5719    2.3616 C.ar    1  UNL1       -0.0605
     12 C          -2.3011   -4.2310    1.0391 C.ar    1  UNL1       -0.0438
     13 C          -1.7870   -3.0679    0.4976 C.ar    1  UNL1        0.0596
     14 C          -2.0834   -2.7057   -0.8662 C.1     1  UNL1        0.0998
     15 N          -2.3422   -2.4099   -1.9653 N.1     1  UNL1       -0.1909
     16 C          -1.4845    2.5424    0.2592 C.ar    1  UNL1        0.0724
     17 N          -2.6461    2.5299    0.9029 N.ar    1  UNL1       -0.2549
     18 C          -3.3561    3.6659    0.9841 C.ar    1  UNL1        0.0283
     19 C          -2.9970    4.8915    0.4516 C.ar    1  UNL1       -0.0436
     20 C          -1.7894    4.9051   -0.2178 C.ar    1  UNL1       -0.0583
     21 C          -1.0603    3.7302   -0.2989 C.ar    1  UNL1       -0.0356
     22 C           2.4525    0.0056   -1.2184 C.ar    1  UNL1        0.0495
     23 C           3.6170   -0.3247   -0.5206 C.ar    1  UNL1       -0.0377
     24 C           4.7785   -0.3269   -1.2630 C.ar    1  UNL1       -0.0598
     25 C           4.8219   -0.0289   -2.6014 C.ar    1  UNL1       -0.0616
     26 C           3.6466    0.2921   -3.2512 C.ar    1  UNL1       -0.0598
     27 C           2.4534    0.3110   -2.5616 C.ar    1  UNL1       -0.0377
     28 H           0.9322    2.1157   -0.9564 H       1  UNL1        0.0820
     29 H          -2.0880    0.1112    1.2554 H       1  UNL1        0.0632
     30 H          -0.0447   -1.9254    3.2048 H       1  UNL1        0.0624
     31 H          -0.9788   -4.0120    4.1456 H       1  UNL1        0.0618
     32 H          -2.3824   -5.4647    2.8284 H       1  UNL1        0.0618
     33 H          -2.9389   -4.9034    0.4603 H       1  UNL1        0.0631
     34 H          -4.3113    3.6431    1.5168 H       1  UNL1        0.0830
     35 H          -3.6236    5.7611    0.5596 H       1  UNL1        0.0633
     36 H          -1.4449    5.8449   -0.6642 H       1  UNL1        0.0619
     37 H          -0.1363    3.8400   -0.8382 H       1  UNL1        0.0639
     38 H           3.5921   -0.5625    0.5409 H       1  UNL1        0.0638
     39 H           5.6992   -0.5819   -0.7385 H       1  UNL1        0.0618
     40 H           5.7685   -0.0525   -3.1103 H       1  UNL1        0.0618
     41 H           3.6958    0.5230   -4.2980 H       1  UNL1        0.0618
     42 H           1.5320    0.5646   -3.0799 H       1  UNL1        0.0638
@<TRIPOS>BOND
     1     1     2    2
     2     2     3   ar
     3     3     4   ar
     4     4     5   ar
     5     5     6   ar
     6     6     7   ar
     7     7     8    1
     8     8     9   ar
     9     9    10   ar
    10    10    11   ar
    11    11    12   ar
    12    12    13   ar
    13    13    14    1
    14    14    15    3
    15     5    16    1
    16    16    17   ar
    17    17    18   ar
    18    18    19   ar
    19    19    20   ar
    20    20    21   ar
    21     3    22    1
    22    22    23   ar
    23    23    24   ar
    24    24    25   ar
    25    25    26   ar
    26    26    27   ar
    27     7     2   ar
    28    13     8   ar
    29    21    16   ar
    30    27    22   ar
    31     4    28    1
    32     6    29    1
    33     9    30    1
    34    10    31    1
    35    11    32    1
    36    12    33    1
    37    18    34    1
    38    19    35    1
    39    20    36    1
    40    21    37    1
    41    23    38    1
    42    24    39    1
    43    25    40    1
    44    26    41    1
    45    27    42    1
