@<TRIPOS>MOLECULE
*****
 44 45 0 0 0
SMALL
GASTEIGER

@<TRIPOS>ATOM
      1 C           3.0832    1.3808    2.2882 C.3     1  UNL1        0.0788
      2 O           3.5596    1.7391    1.0125 O.3     1  UNL1       -0.4951
      3 C           2.9100    1.2792   -0.1237 C.ar    1  UNL1        0.1204
      4 C           3.4138    1.6571   -1.3606 C.ar    1  UNL1       -0.0199
      5 C           2.7379    1.1776   -2.4529 C.ar    1  UNL1       -0.0580
      6 C           1.6369    0.3781   -2.3763 C.ar    1  UNL1       -0.0556
      7 C           1.1358    0.0020   -1.1256 C.ar    1  UNL1       -0.0124
      8 C           1.7977    0.4711   -0.0139 C.ar    1  UNL1       -0.0141
      9 C          -0.0686   -0.8719   -1.1332 C.3     1  UNL1        0.0950
     10 O          -0.8127   -0.6137   -2.3076 O.3     1  UNL1       -0.3836
     11 C           0.3536   -2.3284   -1.1463 C.3     1  UNL1       -0.0195
     12 C          -0.4313   -3.1864   -0.1989 C.3     1  UNL1       -0.0501
     13 C          -1.8984   -2.8878   -0.2303 C.3     1  UNL1       -0.0526
     14 C          -2.2207   -1.4351   -0.1270 C.3     1  UNL1       -0.0461
     15 C          -0.9911   -0.5673    0.0221 C.3     1  UNL1        0.0048
     16 C          -1.3427    0.8811   -0.0478 C.3     1  UNL1        0.0041
     17 N          -2.2255    1.2498    1.0286 N.3     1  UNL1       -0.3080
     18 C          -2.5938    2.6449    1.0019 C.3     1  UNL1       -0.0130
     19 C          -1.7107    0.8877    2.3343 C.3     1  UNL1       -0.0130
     20 H           2.9691    0.2781    2.3132 H       1  UNL1        0.0660
     21 H           3.8412    1.6945    3.0514 H       1  UNL1        0.0660
     22 H           2.1298    1.9068    2.4973 H       1  UNL1        0.0660
     23 H           4.2784    2.2849   -1.4060 H       1  UNL1        0.0654
     24 H           3.1215    1.4657   -3.4237 H       1  UNL1        0.0619
     25 H           1.1744    0.0518   -3.2963 H       1  UNL1        0.0621
     26 H           1.3849    0.1619    0.9519 H       1  UNL1        0.0658
     27 H          -0.4189   -1.2052   -3.0079 H       1  UNL1        0.2106
     28 H           1.4138   -2.3698   -0.8047 H       1  UNL1        0.0296
     29 H           0.3251   -2.6845   -2.1856 H       1  UNL1        0.0296
     30 H          -0.0546   -3.1484    0.8280 H       1  UNL1        0.0266
     31 H          -0.3214   -4.2402   -0.5741 H       1  UNL1        0.0266
     32 H          -2.3716   -3.4894    0.5942 H       1  UNL1        0.0265
     33 H          -2.3104   -3.3341   -1.1823 H       1  UNL1        0.0265
     34 H          -2.7808   -1.0502   -1.0229 H       1  UNL1        0.0269
     35 H          -2.9238   -1.2632    0.7363 H       1  UNL1        0.0269
     36 H          -0.4640   -0.8467    0.9488 H       1  UNL1        0.0344
     37 H          -0.4426    1.4897   -0.1438 H       1  UNL1        0.0430
     38 H          -1.9233    1.0452   -0.9879 H       1  UNL1        0.0430
     39 H          -1.9375    3.2240    0.3235 H       1  UNL1        0.0391
     40 H          -2.5629    3.1033    2.0121 H       1  UNL1        0.0391
     41 H          -3.6489    2.6974    0.6426 H       1  UNL1        0.0391
     42 H          -1.8817    1.6966    3.0886 H       1  UNL1        0.0391
     43 H          -0.6362    0.6708    2.3277 H       1  UNL1        0.0391
     44 H          -2.2923    0.0035    2.6759 H       1  UNL1        0.0391
@<TRIPOS>BOND
     1     1     2    1
     2     2     3    1
     3     3     4   ar
     4     4     5   ar
     5     5     6   ar
     6     6     7   ar
     7     7     8   ar
     8     7     9    1
     9     9    10    1
    10     9    11    1
    11    11    12    1
    12    12    13    1
    13    13    14    1
    14    14    15    1
    15    15    16    1
    16    16    17    1
    17    17    18    1
    18    17    19    1
    19     8     3   ar
    20    15     9    1
    21     1    20    1
    22     1    21    1
    23     1    22    1
    24     4    23    1
    25     5    24    1
    26     6    25    1
    27     8    26    1
    28    10    27    1
    29    11    28    1
    30    11    29    1
    31    12    30    1
    32    12    31    1
    33    13    32    1
    34    13    33    1
    35    14    34    1
    36    14    35    1
    37    15    36    1
    38    16    37    1
    39    16    38    1
    40    18    39    1
    41    18    40    1
    42    18    41    1
    43    19    42    1
    44    19    43    1
    45    19    44    1
