@<TRIPOS>MOLECULE
*****
 98 103 0 0 0
SMALL
GASTEIGER

@<TRIPOS>ATOM
      1 C          -9.9257    5.0581    1.7724 C.3     1  UNL1        0.0790
      2 O          -9.7770    3.7968    1.1973 O.3     1  UNL1       -0.4914
      3 C          -8.5894    3.2249    0.8221 C.ar    1  UNL1        0.1618
      4 C          -7.3587    3.8324    0.9665 C.ar    1  UNL1       -0.0160
      5 C          -6.1859    3.2220    0.5754 C.ar    1  UNL1       -0.0534
      6 C          -6.2184    1.9560    0.0165 C.ar    1  UNL1       -0.0255
      7 C          -7.4602    1.3594   -0.1211 C.ar    1  UNL1        0.0158
      8 C          -8.6394    1.9402    0.2566 C.ar    1  UNL1        0.1667
      9 O          -9.6846    1.0779   -0.0215 O.3     1  UNL1       -0.4836
     10 C          -9.1770   -0.1957   -0.2056 C.3     1  UNL1        0.1161
     11 C          -9.9921   -1.0733   -1.0996 C.3     1  UNL1        0.0151
     12 C          -9.2365   -1.7182   -2.2058 C.3     1  UNL1        0.0768
     13 O         -10.0908   -2.2209   -3.2067 O.3     1  UNL1       -0.3876
     14 C          -8.3228   -0.7645   -2.8846 C.2     1  UNL1       -0.0588
     15 C          -7.6242    0.0650   -2.1276 C.2     1  UNL1       -0.0715
     16 C          -7.7731    0.0154   -0.6734 C.3     1  UNL1        0.0558
     17 C          -6.8514   -0.9681    0.0155 C.3     1  UNL1       -0.0235
     18 C          -5.4574   -0.9012   -0.5706 C.3     1  UNL1        0.0004
     19 N          -4.6460    0.1002    0.0164 N.3     1  UNL1       -0.2981
     20 C          -4.1295   -0.1516    1.3058 C.3     1  UNL1       -0.0008
     21 C          -3.1050   -1.2541    1.3653 C.3     1  UNL1       -0.0402
     22 C          -1.9014   -0.9626    0.5001 C.3     1  UNL1       -0.0519
     23 C          -0.9266   -2.1110    0.6056 C.3     1  UNL1       -0.0530
     24 C           0.3041   -1.9123   -0.2259 C.3     1  UNL1       -0.0531
     25 C           1.1060   -0.7133    0.1177 C.3     1  UNL1       -0.0531
     26 C           1.6215   -0.7085    1.5335 C.3     1  UNL1       -0.0530
     27 C           2.5121   -1.8914    1.8231 C.3     1  UNL1       -0.0500
     28 C           3.7377   -1.9453    0.9329 C.3     1  UNL1       -0.0186
     29 C           4.5072   -3.1748    1.3496 C.3     1  UNL1        0.0896
     30 O           5.6530   -3.3805    0.6515 O.3     1  UNL1       -0.4920
     31 C           6.7852   -2.6472    0.5976 C.ar    1  UNL1        0.1205
     32 C           7.8164   -3.0910   -0.2640 C.ar    1  UNL1       -0.0196
     33 C           8.9793   -2.3814   -0.3469 C.ar    1  UNL1       -0.0539
     34 C           9.2074   -1.2286    0.3816 C.ar    1  UNL1       -0.0331
     35 C          10.4600   -0.4530    0.2984 C.3     1  UNL1        0.0240
     36 N          10.4104    0.5818   -0.7313 N.3     1  UNL1       -0.2982
     37 C          11.7010    1.2466   -0.6936 C.3     1  UNL1       -0.0008
     38 C          11.7485    2.4954   -1.5231 C.3     1  UNL1       -0.0402
     39 C          10.6225    3.4233   -1.0519 C.3     1  UNL1       -0.0507
     40 C           9.3326    2.6452   -1.3274 C.3     1  UNL1       -0.0402
     41 C           9.3241    1.4769   -0.3925 C.3     1  UNL1       -0.0008
     42 C           8.1937   -0.8093    1.2171 C.ar    1  UNL1       -0.0539
     43 C           6.9855   -1.5060    1.3335 C.ar    1  UNL1       -0.0196
     44 C          -4.8785    1.4442   -0.3594 C.3     1  UNL1        0.0244
     45 H         -10.9677    5.4107    1.5413 H       1  UNL1        0.0660
     46 H          -9.1620    5.7367    1.3255 H       1  UNL1        0.0660
     47 H          -9.8262    5.0743    2.8635 H       1  UNL1        0.0660
     48 H          -7.3102    4.8216    1.4009 H       1  UNL1        0.0655
     49 H          -5.2287    3.7055    0.6923 H       1  UNL1        0.0622
     50 H          -9.1207   -0.7077    0.8000 H       1  UNL1        0.0746
     51 H         -10.7993   -0.4511   -1.5498 H       1  UNL1        0.0329
     52 H         -10.5300   -1.8879   -0.5326 H       1  UNL1        0.0329
     53 H          -8.6405   -2.5790   -1.8621 H       1  UNL1        0.0639
     54 H          -9.7110   -3.0288   -3.6043 H       1  UNL1        0.2102
     55 H          -8.2027   -0.7155   -3.9519 H       1  UNL1        0.0595
     56 H          -6.9458    0.7754   -2.5963 H       1  UNL1        0.0580
     57 H          -6.7613   -0.6335    1.0714 H       1  UNL1        0.0290
     58 H          -7.2550   -1.9831   -0.0003 H       1  UNL1        0.0290
     59 H          -5.5664   -0.8269   -1.6644 H       1  UNL1        0.0427
     60 H          -4.9858   -1.8947   -0.3072 H       1  UNL1        0.0427
     61 H          -4.9531   -0.4416    2.0044 H       1  UNL1        0.0427
     62 H          -3.6780    0.7537    1.7185 H       1  UNL1        0.0427
     63 H          -3.4976   -2.2377    1.1036 H       1  UNL1        0.0278
     64 H          -2.7594   -1.3110    2.4217 H       1  UNL1        0.0278
     65 H          -1.4513    0.0087    0.6965 H       1  UNL1        0.0266
     66 H          -2.2745   -0.9372   -0.5554 H       1  UNL1        0.0266
     67 H          -1.4121   -3.0443    0.2527 H       1  UNL1        0.0265
     68 H          -0.6621   -2.2837    1.6684 H       1  UNL1        0.0265
     69 H           0.0563   -1.8778   -1.2998 H       1  UNL1        0.0265
     70 H           0.9452   -2.8081   -0.0839 H       1  UNL1        0.0265
     71 H           1.9886   -0.6810   -0.5512 H       1  UNL1        0.0265
     72 H           0.5747    0.2481   -0.0341 H       1  UNL1        0.0265
     73 H           2.2558    0.2005    1.6477 H       1  UNL1        0.0265
     74 H           0.8442   -0.6747    2.2946 H       1  UNL1        0.0265
     75 H           2.8877   -1.7709    2.8603 H       1  UNL1        0.0266
     76 H           2.0052   -2.8521    1.7571 H       1  UNL1        0.0266
     77 H           3.4488   -2.0277   -0.1441 H       1  UNL1        0.0298
     78 H           4.2561   -1.0115    1.0441 H       1  UNL1        0.0298
     79 H           3.8125   -4.0607    1.1613 H       1  UNL1        0.0696
     80 H           4.6354   -3.1583    2.4652 H       1  UNL1        0.0696
     81 H           7.6272   -3.9991   -0.8330 H       1  UNL1        0.0654
     82 H           9.7453   -2.7546   -1.0190 H       1  UNL1        0.0622
     83 H          11.2938   -1.1343   -0.0132 H       1  UNL1        0.0476
     84 H          10.7554    0.0289    1.2412 H       1  UNL1        0.0476
     85 H          12.0096    1.5102    0.3408 H       1  UNL1        0.0427
     86 H          12.4393    0.5167   -1.1185 H       1  UNL1        0.0427
     87 H          11.5379    2.2921   -2.5876 H       1  UNL1        0.0278
     88 H          12.7181    2.9826   -1.3357 H       1  UNL1        0.0278
     89 H          10.6138    4.3537   -1.6299 H       1  UNL1        0.0266
     90 H          10.7211    3.5714    0.0321 H       1  UNL1        0.0266
     91 H           9.4376    2.2633   -2.3796 H       1  UNL1        0.0278
     92 H           8.4609    3.3033   -1.2278 H       1  UNL1        0.0278
     93 H           9.4524    1.8438    0.6360 H       1  UNL1        0.0427
     94 H           8.3818    0.8997   -0.5425 H       1  UNL1        0.0427
     95 H           8.3027    0.0799    1.8137 H       1  UNL1        0.0622
     96 H           6.2478   -1.1353    2.0236 H       1  UNL1        0.0654
     97 H          -4.6684    1.6509   -1.4399 H       1  UNL1        0.0476
     98 H          -4.1419    2.0801    0.1898 H       1  UNL1        0.0476
@<TRIPOS>BOND
     1     1     2    1
     2     2     3    1
     3     3     4   ar
     4     4     5   ar
     5     5     6   ar
     6     6     7   ar
     7     7     8   ar
     8     8     9    1
     9     9    10    1
    10    10    11    1
    11    11    12    1
    12    12    13    1
    13    12    14    1
    14    14    15    2
    15    15    16    1
    16    16    17    1
    17    17    18    1
    18    18    19    1
    19    19    20    1
    20    20    21    1
    21    21    22    1
    22    22    23    1
    23    23    24    1
    24    24    25    1
    25    25    26    1
    26    26    27    1
    27    27    28    1
    28    28    29    1
    29    29    30    1
    30    30    31    1
    31    31    32   ar
    32    32    33   ar
    33    33    34   ar
    34    34    35    1
    35    35    36    1
    36    36    37    1
    37    37    38    1
    38    38    39    1
    39    39    40    1
    40    40    41    1
    41    34    42   ar
    42    42    43   ar
    43    19    44    1
    44     8     3   ar
    45    16    10    1
    46    43    31   ar
    47    44     6    1
    48    16     7    1
    49    41    36    1
    50     1    45    1
    51     1    46    1
    52     1    47    1
    53     4    48    1
    54     5    49    1
    55    10    50    1
    56    11    51    1
    57    11    52    1
    58    12    53    1
    59    13    54    1
    60    14    55    1
    61    15    56    1
    62    17    57    1
    63    17    58    1
    64    18    59    1
    65    18    60    1
    66    20    61    1
    67    20    62    1
    68    21    63    1
    69    21    64    1
    70    22    65    1
    71    22    66    1
    72    23    67    1
    73    23    68    1
    74    24    69    1
    75    24    70    1
    76    25    71    1
    77    25    72    1
    78    26    73    1
    79    26    74    1
    80    27    75    1
    81    27    76    1
    82    28    77    1
    83    28    78    1
    84    29    79    1
    85    29    80    1
    86    32    81    1
    87    33    82    1
    88    35    83    1
    89    35    84    1
    90    37    85    1
    91    37    86    1
    92    38    87    1
    93    38    88    1
    94    39    89    1
    95    39    90    1
    96    40    91    1
    97    40    92    1
    98    41    93    1
    99    41    94    1
   100    42    95    1
   101    43    96    1
   102    44    97    1
   103    44    98    1
