@<TRIPOS>MOLECULE
*****
 55 57 0 0 0
SMALL
GASTEIGER

@<TRIPOS>ATOM
      1 N          10.3966   -0.5740   -0.1687 N.pl3   0  UNK0       -0.3289
      2 C           8.9872   -0.7345   -0.2259 C.ar    0  UNK0        0.1951
      3 N           8.5883   -1.9941    0.1138 N.ar    0  UNK0       -0.1759
      4 C           7.2504   -2.2647    0.0941 C.ar    0  UNK0        0.2973
      5 O           6.7418   -3.3965    0.3883 O.2     0  UNK0       -0.2637
      6 C           6.3843   -1.2297   -0.2734 C.ar    0  UNK0        0.1330
      7 C           6.8308    0.0514   -0.6159 C.ar    0  UNK0        0.1255
      8 N           5.8848    1.0564   -0.9804 N.pl3   0  UNK0       -0.3271
      9 C           4.4558    0.8037   -1.0456 C.3     0  UNK0        0.0302
     10 C           4.1521   -0.2546   -0.0210 C.3     0  UNK0        0.0517
     11 C           2.7080   -0.6506   -0.1399 C.3     0  UNK0        0.0289
     12 N           1.8366    0.4835    0.0849 N.pl3   0  UNK0       -0.3420
     13 C           0.4376    0.2336   -0.0013 C.ar    0  UNK0        0.0272
     14 C          -0.0455   -1.0280   -0.2848 C.ar    0  UNK0       -0.0401
     15 C          -1.4209   -1.2714   -0.3690 C.ar    0  UNK0       -0.0479
     16 C          -2.3084   -0.2290   -0.1644 C.ar    0  UNK0        0.0368
     17 C          -1.8148    1.0278    0.1184 C.ar    0  UNK0       -0.0479
     18 C          -0.4561    1.2650    0.2009 C.ar    0  UNK0       -0.0401
     19 C          -3.7327   -0.5277   -0.2616 C.2     0  UNK0        0.2447
     20 O          -4.0588   -1.7065   -0.5236 O.2     0  UNK0       -0.2702
     21 N          -4.7388    0.4498   -0.0738 N.am    1  GLU1       -0.2983
     22 CA         -6.1598    0.1301   -0.1755 C.3     1  GLU1        0.1209
     23 CB         -6.9012    0.4863    1.0647 C.3     1  GLU1       -0.0140
     24 CG         -8.3572    0.1287    0.9171 C.3     1  GLU1        0.0470
     25 CD         -9.0968    0.4840    2.1842 C.2     1  GLU1        0.3048
     26 OE1        -8.7940    1.0398    3.4184 O.3     1  GLU1       -0.4806
     27 OE2       -10.3299    0.2823    2.3120 O.2     1  GLU1       -0.2510
     28 C          -6.6584    0.9578   -1.3337 C.2     1  GLU1        0.3253
     29 O          -5.8628    1.8365   -2.0559 O.3     1  GLU1       -0.4793
     30 OXT        -7.8058    1.0530   -1.8844 O.2     1  GLU1       -0.2489
     31 N           4.9639   -1.4383   -0.3173 N.pl3   0  UNK0       -0.3311
     32 N           8.1527    0.2647   -0.5806 N.ar    0  UNK0       -0.3147
     33 H          11.2954   -0.7289   -0.6517 H       0  UNK0        0.1451
     34 H          10.4784   -0.1059    0.7608 H       0  UNK0        0.1451
     35 H           6.3229    1.9662   -1.1887 H       0  UNK0        0.1475
     36 H           3.8596    1.6978   -0.8486 H       0  UNK0        0.0480
     37 H           4.2651    0.3454   -2.0488 H       0  UNK0        0.0480
     38 H           4.3568    0.0801    1.0131 H       0  UNK0        0.0528
     39 H           2.4942   -0.9894   -1.1855 H       0  UNK0        0.0480
     40 H           2.4423   -1.4313    0.5993 H       0  UNK0        0.0480
     41 H           2.1883    1.4214    0.2955 H       0  UNK0        0.1461
     42 H           0.6543   -1.8397   -0.4440 H       0  UNK0        0.0636
     43 H          -1.7388   -2.2798   -0.5941 H       0  UNK0        0.0626
     44 H          -2.5024    1.8473    0.2795 H       0  UNK0        0.0626
     45 H          -0.1417    2.2741    0.4260 H       0  UNK0        0.0636
     46 H          -4.4934    1.4240    0.1422 H       1  GLU1        0.1498
     47 HA         -6.2984   -0.9329   -0.4080 H       1  GLU1        0.0614
     48 HB1        -6.5265   -0.0657    1.9408 H       1  GLU1        0.0294
     49 HB2        -6.8656    1.5878    1.2085 H       1  GLU1        0.0294
     50 HG1        -8.5006   -0.9754    0.7679 H       1  GLU1        0.0378
     51 HG2        -8.8719    0.6346    0.0890 H       1  GLU1        0.0378
     52 HE1        -8.6651    0.4578    4.2496 H       1  GLU1        0.2951
     53 H          -6.1432    2.7232   -2.4197 H       1  GLU1        0.2951
     54 H           4.6290   -2.4155   -0.5567 H       0  UNK0        0.1467
     55 H           8.5323    1.1998   -0.8266 H       0  UNK0        0.1698
@<TRIPOS>BOND
     1     1     2    1
     2     2     3   ar
     3     3     4   ar
     4     4     5    2
     5     4     6   ar
     6     6     7   ar
     7     7     8    1
     8     8     9    1
     9     9    10    1
    10    10    11    1
    11    11    12    1
    12    12    13    1
    13    13    14   ar
    14    14    15   ar
    15    15    16   ar
    16    16    17   ar
    17    17    18   ar
    18    16    19    1
    19    19    20    2
    20    19    21   am
    21    21    22    1
    22    22    23    1
    23    23    24    1
    24    24    25    1
    25    25    26    1
    26    25    27    2
    27    22    28    1
    28    28    29    1
    29    28    30    2
    30    10    31    1
    31     7    32   ar
    32    32     2   ar
    33    31     6    1
    34    18    13   ar
    35     1    33    1
    36     1    34    1
    37     8    35    1
    38     9    36    1
    39     9    37    1
    40    10    38    1
    41    11    39    1
    42    11    40    1
    43    12    41    1
    44    14    42    1
    45    15    43    1
    46    17    44    1
    47    18    45    1
    48    21    46    1
    49    22    47    1
    50    23    48    1
    51    23    49    1
    52    24    50    1
    53    24    51    1
    54    26    52    1
    55    29    53    1
    56    31    54    1
    57    32    55    1
