@<TRIPOS>MOLECULE
*****
 52 55 0 0 0
SMALL
GASTEIGER

@<TRIPOS>ATOM
      1 C           5.4198    1.5131   -1.3904 C.3     1  UNL1        0.0369
      2 O           4.9761    0.6180   -0.4406 O.3     1  UNL1       -0.3782
      3 C           3.6530    0.3268   -0.6552 C.3     1  UNL1        0.0753
      4 C           3.3773   -1.1524   -0.7594 C.3     1  UNL1       -0.0094
      5 C           2.6048   -1.5155    0.5001 C.3     1  UNL1        0.0152
      6 C           1.1091   -1.5812    0.1621 C.3     1  UNL1       -0.0108
      7 C           0.4542   -0.2379    0.4115 C.3     1  UNL1        0.0628
      8 O          -0.6812   -0.1665   -0.3939 O.3     1  UNL1       -0.3640
      9 C          -1.8403    0.0320    0.3511 C.3     1  UNL1        0.1090
     10 C          -2.7087   -1.1463    0.1620 C.ar    1  UNL1       -0.0145
     11 C          -3.3848   -1.6979    1.2223 C.ar    1  UNL1       -0.0558
     12 C          -4.2065   -2.8197    1.0554 C.ar    1  UNL1       -0.0614
     13 C          -4.3329   -3.3710   -0.1918 C.ar    1  UNL1       -0.0617
     14 C          -3.6655   -2.8344   -1.2638 C.ar    1  UNL1       -0.0614
     15 C          -2.8494   -1.7138   -1.0766 C.ar    1  UNL1       -0.0558
     16 C          -2.5851    1.2438   -0.0097 C.ar    1  UNL1       -0.0144
     17 C          -3.1134    2.0162    1.0294 C.ar    1  UNL1       -0.0544
     18 C          -3.8177    3.1650    0.7742 C.ar    1  UNL1       -0.0430
     19 C          -3.9891    3.5346   -0.5337 C.ar    1  UNL1        0.0410
     20 CL         -4.8751    4.9893   -0.9894 Cl      1  UNL1       -0.0835
     21 C          -3.4712    2.7789   -1.5703 C.ar    1  UNL1       -0.0430
     22 C          -2.7626    1.6243   -1.3267 C.ar    1  UNL1       -0.0544
     23 C           1.3648    0.8947   -0.0469 C.3     1  UNL1       -0.0084
     24 C           2.7665    0.7246    0.5113 C.3     1  UNL1        0.0390
     25 N           2.7522   -0.3883    1.4011 N.3     1  UNL1       -0.2968
     26 C           3.9202   -0.4866    2.2394 C.3     1  UNL1       -0.0121
     27 H           6.4990    1.7712   -1.2417 H       1  UNL1        0.0524
     28 H           4.8518    2.4621   -1.2352 H       1  UNL1        0.0524
     29 H           5.2206    1.1908   -2.4275 H       1  UNL1        0.0524
     30 H           3.2694    0.8843   -1.5396 H       1  UNL1        0.0612
     31 H           2.7115   -1.2999   -1.6351 H       1  UNL1        0.0306
     32 H           4.2991   -1.7537   -0.8494 H       1  UNL1        0.0306
     33 H           2.9644   -2.4595    0.9100 H       1  UNL1        0.0464
     34 H           0.6896   -2.3420    0.8781 H       1  UNL1        0.0305
     35 H           0.9509   -1.9379   -0.8648 H       1  UNL1        0.0305
     36 H           0.2261   -0.1243    1.4878 H       1  UNL1        0.0597
     37 H          -1.5884    0.0903    1.4483 H       1  UNL1        0.0697
     38 H          -3.3138   -1.2973    2.2164 H       1  UNL1        0.0621
     39 H          -4.7412   -3.2609    1.8786 H       1  UNL1        0.0618
     40 H          -4.9740   -4.2548   -0.3500 H       1  UNL1        0.0618
     41 H          -3.7427   -3.2454   -2.2650 H       1  UNL1        0.0618
     42 H          -2.3323   -1.3201   -1.9557 H       1  UNL1        0.0621
     43 H          -2.9749    1.7189    2.0678 H       1  UNL1        0.0622
     44 H          -4.2447    3.7943    1.5433 H       1  UNL1        0.0632
     45 H          -3.6027    3.0647   -2.6033 H       1  UNL1        0.0632
     46 H          -2.3587    1.0410   -2.1388 H       1  UNL1        0.0622
     47 H           1.3488    0.8714   -1.1557 H       1  UNL1        0.0306
     48 H           0.9334    1.8464    0.2627 H       1  UNL1        0.0306
     49 H           3.0894    1.6746    0.9751 H       1  UNL1        0.0489
     50 H           4.8723   -0.3256    1.6950 H       1  UNL1        0.0391
     51 H           3.8466    0.3205    2.9977 H       1  UNL1        0.0391
     52 H           3.9861   -1.4590    2.7296 H       1  UNL1        0.0391
@<TRIPOS>BOND
     1     1     2    1
     2     2     3    1
     3     3     4    1
     4     4     5    1
     5     5     6    1
     6     6     7    1
     7     7     8    1
     8     8     9    1
     9     9    10    1
    10    10    11   ar
    11    11    12   ar
    12    12    13   ar
    13    13    14   ar
    14    14    15   ar
    15     9    16    1
    16    16    17   ar
    17    17    18   ar
    18    18    19   ar
    19    19    20    1
    20    19    21   ar
    21    21    22   ar
    22     7    23    1
    23    23    24    1
    24    24    25    1
    25    25    26    1
    26    24     3    1
    27    25     5    1
    28    15    10   ar
    29    22    16   ar
    30     1    27    1
    31     1    28    1
    32     1    29    1
    33     3    30    1
    34     4    31    1
    35     4    32    1
    36     5    33    1
    37     6    34    1
    38     6    35    1
    39     7    36    1
    40     9    37    1
    41    11    38    1
    42    12    39    1
    43    13    40    1
    44    14    41    1
    45    15    42    1
    46    17    43    1
    47    18    44    1
    48    21    45    1
    49    22    46    1
    50    23    47    1
    51    23    48    1
    52    24    49    1
    53    26    50    1
    54    26    51    1
    55    26    52    1
