
     RDKit          3D

 52 55  0  0  0  0  0  0  0  0999 V2000
    5.4198    1.5131   -1.3904 C   0  0  0  0  0  0  0  0  0  0  0  0
    4.9761    0.6180   -0.4406 O   0  0  0  0  0  0  0  0  0  0  0  0
    3.6530    0.3268   -0.6552 C   0  0  1  0  0  0  0  0  0  0  0  0
    3.3773   -1.1524   -0.7594 C   0  0  0  0  0  0  0  0  0  0  0  0
    2.6048   -1.5155    0.5001 C   0  0  0  0  0  0  0  0  0  0  0  0
    1.1091   -1.5812    0.1621 C   0  0  0  0  0  0  0  0  0  0  0  0
    0.4542   -0.2379    0.4115 C   0  0  2  0  0  0  0  0  0  0  0  0
   -0.6812   -0.1665   -0.3939 O   0  0  0  0  0  0  0  0  0  0  0  0
   -1.8403    0.0320    0.3511 C   0  0  0  0  0  0  0  0  0  0  0  0
   -2.7087   -1.1463    0.1620 C   0  0  0  0  0  0  0  0  0  0  0  0
   -3.3848   -1.6979    1.2223 C   0  0  0  0  0  0  0  0  0  0  0  0
   -4.2065   -2.8197    1.0554 C   0  0  0  0  0  0  0  0  0  0  0  0
   -4.3329   -3.3710   -0.1918 C   0  0  0  0  0  0  0  0  0  0  0  0
   -3.6655   -2.8344   -1.2638 C   0  0  0  0  0  0  0  0  0  0  0  0
   -2.8494   -1.7138   -1.0766 C   0  0  0  0  0  0  0  0  0  0  0  0
   -2.5851    1.2438   -0.0097 C   0  0  0  0  0  0  0  0  0  0  0  0
   -3.1134    2.0162    1.0294 C   0  0  0  0  0  0  0  0  0  0  0  0
   -3.8177    3.1650    0.7742 C   0  0  0  0  0  0  0  0  0  0  0  0
   -3.9891    3.5346   -0.5337 C   0  0  0  0  0  0  0  0  0  0  0  0
   -4.8751    4.9893   -0.9894 Cl  0  0  0  0  0  0  0  0  0  0  0  0
   -3.4712    2.7789   -1.5703 C   0  0  0  0  0  0  0  0  0  0  0  0
   -2.7626    1.6243   -1.3267 C   0  0  0  0  0  0  0  0  0  0  0  0
    1.3648    0.8947   -0.0469 C   0  0  0  0  0  0  0  0  0  0  0  0
    2.7665    0.7246    0.5113 C   0  0  0  0  0  0  0  0  0  0  0  0
    2.7522   -0.3883    1.4011 N   0  0  0  0  0  0  0  0  0  0  0  0
    3.9202   -0.4866    2.2394 C   0  0  0  0  0  0  0  0  0  0  0  0
    6.4990    1.7712   -1.2417 H   0  0  0  0  0  0  0  0  0  0  0  0
    4.8518    2.4621   -1.2352 H   0  0  0  0  0  0  0  0  0  0  0  0
    5.2206    1.1908   -2.4275 H   0  0  0  0  0  0  0  0  0  0  0  0
    3.2694    0.8843   -1.5396 H   0  0  0  0  0  0  0  0  0  0  0  0
    2.7115   -1.2999   -1.6351 H   0  0  0  0  0  0  0  0  0  0  0  0
    4.2991   -1.7537   -0.8494 H   0  0  0  0  0  0  0  0  0  0  0  0
    2.9644   -2.4595    0.9100 H   0  0  0  0  0  0  0  0  0  0  0  0
    0.6896   -2.3420    0.8781 H   0  0  0  0  0  0  0  0  0  0  0  0
    0.9509   -1.9379   -0.8648 H   0  0  0  0  0  0  0  0  0  0  0  0
    0.2261   -0.1243    1.4878 H   0  0  0  0  0  0  0  0  0  0  0  0
   -1.5884    0.0903    1.4483 H   0  0  0  0  0  0  0  0  0  0  0  0
   -3.3138   -1.2973    2.2164 H   0  0  0  0  0  0  0  0  0  0  0  0
   -4.7412   -3.2609    1.8786 H   0  0  0  0  0  0  0  0  0  0  0  0
   -4.9740   -4.2548   -0.3500 H   0  0  0  0  0  0  0  0  0  0  0  0
   -3.7427   -3.2454   -2.2650 H   0  0  0  0  0  0  0  0  0  0  0  0
   -2.3323   -1.3201   -1.9557 H   0  0  0  0  0  0  0  0  0  0  0  0
   -2.9749    1.7189    2.0678 H   0  0  0  0  0  0  0  0  0  0  0  0
   -4.2447    3.7943    1.5433 H   0  0  0  0  0  0  0  0  0  0  0  0
   -3.6027    3.0647   -2.6033 H   0  0  0  0  0  0  0  0  0  0  0  0
   -2.3587    1.0410   -2.1388 H   0  0  0  0  0  0  0  0  0  0  0  0
    1.3488    0.8714   -1.1557 H   0  0  0  0  0  0  0  0  0  0  0  0
    0.9334    1.8464    0.2627 H   0  0  0  0  0  0  0  0  0  0  0  0
    3.0894    1.6746    0.9751 H   0  0  0  0  0  0  0  0  0  0  0  0
    4.8723   -0.3256    1.6950 H   0  0  0  0  0  0  0  0  0  0  0  0
    3.8466    0.3205    2.9977 H   0  0  0  0  0  0  0  0  0  0  0  0
    3.9861   -1.4590    2.7296 H   0  0  0  0  0  0  0  0  0  0  0  0
  1  2  1  0
  2  3  1  0
  3  4  1  0
  4  5  1  0
  5  6  1  0
  6  7  1  0
  7  8  1  0
  8  9  1  0
  9 10  1  0
 10 11  2  0
 11 12  1  0
 12 13  2  0
 13 14  1  0
 14 15  2  0
  9 16  1  0
 16 17  2  0
 17 18  1  0
 18 19  2  0
 19 20  1  0
 19 21  1  0
 21 22  2  0
  7 23  1  0
 23 24  1  0
 24 25  1  0
 25 26  1  0
 24  3  1  0
 25  5  1  0
 15 10  1  0
 22 16  1  0
  1 27  1  0
  1 28  1  0
  1 29  1  0
  3 30  1  6
  4 31  1  0
  4 32  1  0
  5 33  1  0
  6 34  1  0
  6 35  1  0
  7 36  1  1
  9 37  1  0
 11 38  1  0
 12 39  1  0
 13 40  1  0
 14 41  1  0
 15 42  1  0
 17 43  1  0
 18 44  1  0
 21 45  1  0
 22 46  1  0
 23 47  1  0
 23 48  1  0
 24 49  1  0
 26 50  1  0
 26 51  1  0
 26 52  1  0
M  END
$$$$
