@<TRIPOS>MOLECULE
*****
 50 54 0 0 0
SMALL
GASTEIGER

@<TRIPOS>ATOM
      1 N          -6.5338   -2.2385    1.2396 N.am    1  UNL1       -0.3240
      2 C          -5.3430   -1.6302    1.6751 C.2     1  UNL1        0.2622
      3 O          -5.0278   -1.8054    2.8987 O.2     1  UNL1       -0.2687
      4 C          -4.4719   -0.8309    0.8253 C.ar    1  UNL1        0.1545
      5 N          -3.3276   -0.2126    1.1320 N.ar    1  UNL1       -0.1650
      6 N          -2.8347    0.4139    0.0771 N.ar    1  UNL1       -0.2541
      7 C          -1.6172    1.1979   -0.0122 C.3     1  UNL1        0.1185
      8 C          -0.4515    0.3720   -0.3879 C.2     1  UNL1        0.2379
      9 O          -0.6149   -0.8545   -0.5822 O.2     1  UNL1       -0.2735
     10 N           0.8363    0.9275   -0.5328 N.am    1  UNL1       -0.2851
     11 C           2.0903    0.3142   -0.8862 C.3     1  UNL1        0.1032
     12 C           2.8820   -0.1046    0.2723 C.2     1  UNL1        0.2388
     13 O           2.4454    0.0851    1.4338 O.2     1  UNL1       -0.2734
     14 N           4.1455   -0.7271    0.1161 N.am    1  UNL1       -0.2688
     15 C           4.8585   -1.1072    1.2863 C.ar    1  UNL1        0.1262
     16 C           4.7217   -2.3489    1.8836 C.ar    1  UNL1       -0.0214
     17 C           5.4379   -2.6805    3.0276 C.ar    1  UNL1       -0.0560
     18 C           6.3011   -1.7585    3.5803 C.ar    1  UNL1       -0.0291
     19 C           6.4168   -0.5414    2.9708 C.ar    1  UNL1        0.1084
     20 BR          7.5796    0.7694    3.6723 Br      1  UNL1       -0.0286
     21 N           5.7096   -0.2396    1.8571 N.ar    1  UNL1       -0.2251
     22 C           2.7860    1.3634   -1.7252 C.3     1  UNL1       -0.0212
     23 C           2.3441    2.6539   -1.1179 C.3     1  UNL1       -0.0185
     24 C           1.0340    3.2562   -1.4996 C.3     1  UNL1       -0.0294
     25 C           1.1405    2.3289   -0.3333 C.3     1  UNL1        0.0301
     26 C          -3.6540    0.2295   -0.9945 C.ar    1  UNL1        0.0702
     27 C          -3.5817    0.6705   -2.3001 C.ar    1  UNL1       -0.0360
     28 C          -4.6025    0.2937   -3.1502 C.ar    1  UNL1       -0.0597
     29 C          -5.6449   -0.4902   -2.7023 C.ar    1  UNL1       -0.0610
     30 C          -5.6988   -0.9199   -1.3960 C.ar    1  UNL1       -0.0503
     31 C          -4.6893   -0.5614   -0.5090 C.ar    1  UNL1        0.0322
     32 H          -7.4155   -1.7033    1.2134 H       1  UNL1        0.1453
     33 H          -6.5287   -3.2271    0.9436 H       1  UNL1        0.1453
     34 H          -1.7311    2.0644   -0.6991 H       1  UNL1        0.0605
     35 H          -1.4410    1.6355    1.0056 H       1  UNL1        0.0605
     36 H           1.9219   -0.5648   -1.5359 H       1  UNL1        0.0597
     37 H           4.5645   -0.9127   -0.8435 H       1  UNL1        0.1563
     38 H           4.0509   -3.0528    1.4463 H       1  UNL1        0.0652
     39 H           5.3547   -3.6395    3.5184 H       1  UNL1        0.0619
     40 H           6.8837   -1.9597    4.4681 H       1  UNL1        0.0644
     41 H           2.4763    1.2940   -2.8008 H       1  UNL1        0.0291
     42 H           3.8888    1.2714   -1.6228 H       1  UNL1        0.0291
     43 H           3.0996    3.3486   -0.6822 H       1  UNL1        0.0320
     44 H           0.5106    2.9157   -2.4227 H       1  UNL1        0.0286
     45 H           0.8895    4.3200   -1.2786 H       1  UNL1        0.0286
     46 H           1.0526    2.7517    0.6887 H       1  UNL1        0.0503
     47 H          -2.7488    1.2849   -2.6185 H       1  UNL1        0.0639
     48 H          -4.5423    0.6423   -4.1761 H       1  UNL1        0.0618
     49 H          -6.4108   -0.7537   -3.4036 H       1  UNL1        0.0618
     50 H          -6.5110   -1.5393   -1.0189 H       1  UNL1        0.0625
@<TRIPOS>BOND
     1     1     2   am
     2     2     3    2
     3     2     4    1
     4     4     5   ar
     5     5     6   ar
     6     6     7    1
     7     7     8    1
     8     8     9    2
     9     8    10   am
    10    10    11    1
    11    11    12    1
    12    12    13    2
    13    12    14   am
    14    14    15    1
    15    15    16   ar
    16    16    17   ar
    17    17    18   ar
    18    18    19   ar
    19    19    20    1
    20    19    21   ar
    21    11    22    1
    22    22    23    1
    23    23    24    1
    24    24    25    1
    25     6    26   ar
    26    26    27   ar
    27    27    28   ar
    28    28    29   ar
    29    29    30   ar
    30    30    31   ar
    31    31     4   ar
    32    25    10    1
    33    31    26   ar
    34    21    15   ar
    35    25    23    1
    36     1    32    1
    37     1    33    1
    38     7    34    1
    39     7    35    1
    40    11    36    1
    41    14    37    1
    42    16    38    1
    43    17    39    1
    44    18    40    1
    45    22    41    1
    46    22    42    1
    47    23    43    1
    48    24    44    1
    49    24    45    1
    50    25    46    1
    51    27    47    1
    52    28    48    1
    53    29    49    1
    54    30    50    1
