
     RDKit          3D

 50 54  0  0  0  0  0  0  0  0999 V2000
   -6.5338   -2.2385    1.2396 N   0  0  0  0  0  0  0  0  0  0  0  0
   -5.3430   -1.6302    1.6751 C   0  0  0  0  0  0  0  0  0  0  0  0
   -5.0278   -1.8054    2.8987 O   0  0  0  0  0  0  0  0  0  0  0  0
   -4.4719   -0.8309    0.8253 C   0  0  0  0  0  0  0  0  0  0  0  0
   -3.3276   -0.2126    1.1320 N   0  0  0  0  0  0  0  0  0  0  0  0
   -2.8347    0.4139    0.0771 N   0  0  0  0  0  0  0  0  0  0  0  0
   -1.6172    1.1979   -0.0122 C   0  0  0  0  0  0  0  0  0  0  0  0
   -0.4515    0.3720   -0.3879 C   0  0  0  0  0  0  0  0  0  0  0  0
   -0.6149   -0.8545   -0.5822 O   0  0  0  0  0  0  0  0  0  0  0  0
    0.8363    0.9275   -0.5328 N   0  0  0  0  0  0  0  0  0  0  0  0
    2.0903    0.3142   -0.8862 C   0  0  2  0  0  0  0  0  0  0  0  0
    2.8820   -0.1046    0.2723 C   0  0  0  0  0  0  0  0  0  0  0  0
    2.4454    0.0851    1.4338 O   0  0  0  0  0  0  0  0  0  0  0  0
    4.1455   -0.7271    0.1161 N   0  0  0  0  0  0  0  0  0  0  0  0
    4.8585   -1.1072    1.2863 C   0  0  0  0  0  0  0  0  0  0  0  0
    4.7217   -2.3489    1.8836 C   0  0  0  0  0  0  0  0  0  0  0  0
    5.4379   -2.6805    3.0276 C   0  0  0  0  0  0  0  0  0  0  0  0
    6.3011   -1.7585    3.5803 C   0  0  0  0  0  0  0  0  0  0  0  0
    6.4168   -0.5414    2.9708 C   0  0  0  0  0  0  0  0  0  0  0  0
    7.5796    0.7694    3.6723 Br  0  0  0  0  0  0  0  0  0  0  0  0
    5.7096   -0.2396    1.8571 N   0  0  0  0  0  0  0  0  0  0  0  0
    2.7860    1.3634   -1.7252 C   0  0  0  0  0  0  0  0  0  0  0  0
    2.3441    2.6539   -1.1179 C   0  0  1  0  0  0  0  0  0  0  0  0
    1.0340    3.2562   -1.4996 C   0  0  0  0  0  0  0  0  0  0  0  0
    1.1405    2.3289   -0.3333 C   0  0  1  0  0  0  0  0  0  0  0  0
   -3.6540    0.2295   -0.9945 C   0  0  0  0  0  0  0  0  0  0  0  0
   -3.5817    0.6705   -2.3001 C   0  0  0  0  0  0  0  0  0  0  0  0
   -4.6025    0.2937   -3.1502 C   0  0  0  0  0  0  0  0  0  0  0  0
   -5.6449   -0.4902   -2.7023 C   0  0  0  0  0  0  0  0  0  0  0  0
   -5.6988   -0.9199   -1.3960 C   0  0  0  0  0  0  0  0  0  0  0  0
   -4.6893   -0.5614   -0.5090 C   0  0  0  0  0  0  0  0  0  0  0  0
   -7.4155   -1.7033    1.2134 H   0  0  0  0  0  0  0  0  0  0  0  0
   -6.5287   -3.2271    0.9436 H   0  0  0  0  0  0  0  0  0  0  0  0
   -1.7311    2.0644   -0.6991 H   0  0  0  0  0  0  0  0  0  0  0  0
   -1.4410    1.6355    1.0056 H   0  0  0  0  0  0  0  0  0  0  0  0
    1.9219   -0.5648   -1.5359 H   0  0  0  0  0  0  0  0  0  0  0  0
    4.5645   -0.9127   -0.8435 H   0  0  0  0  0  0  0  0  0  0  0  0
    4.0509   -3.0528    1.4463 H   0  0  0  0  0  0  0  0  0  0  0  0
    5.3547   -3.6395    3.5184 H   0  0  0  0  0  0  0  0  0  0  0  0
    6.8837   -1.9597    4.4681 H   0  0  0  0  0  0  0  0  0  0  0  0
    2.4763    1.2940   -2.8008 H   0  0  0  0  0  0  0  0  0  0  0  0
    3.8888    1.2714   -1.6228 H   0  0  0  0  0  0  0  0  0  0  0  0
    3.0996    3.3486   -0.6822 H   0  0  0  0  0  0  0  0  0  0  0  0
    0.5106    2.9157   -2.4227 H   0  0  0  0  0  0  0  0  0  0  0  0
    0.8895    4.3200   -1.2786 H   0  0  0  0  0  0  0  0  0  0  0  0
    1.0526    2.7517    0.6887 H   0  0  0  0  0  0  0  0  0  0  0  0
   -2.7488    1.2849   -2.6185 H   0  0  0  0  0  0  0  0  0  0  0  0
   -4.5423    0.6423   -4.1761 H   0  0  0  0  0  0  0  0  0  0  0  0
   -6.4108   -0.7537   -3.4036 H   0  0  0  0  0  0  0  0  0  0  0  0
   -6.5110   -1.5393   -1.0189 H   0  0  0  0  0  0  0  0  0  0  0  0
  1  2  1  0
  2  3  2  0
  2  4  1  0
  4  5  2  0
  5  6  1  0
  6  7  1  0
  7  8  1  0
  8  9  2  0
  8 10  1  0
 10 11  1  0
 11 12  1  0
 12 13  2  0
 12 14  1  0
 14 15  1  0
 15 16  2  0
 16 17  1  0
 17 18  2  0
 18 19  1  0
 19 20  1  0
 19 21  2  0
 11 22  1  0
 22 23  1  0
 23 24  1  0
 24 25  1  0
  6 26  1  0
 26 27  2  0
 27 28  1  0
 28 29  2  0
 29 30  1  0
 30 31  2  0
 31  4  1  0
 25 10  1  0
 31 26  1  0
 21 15  1  0
 25 23  1  0
  1 32  1  0
  1 33  1  0
  7 34  1  0
  7 35  1  0
 11 36  1  6
 14 37  1  0
 16 38  1  0
 17 39  1  0
 18 40  1  0
 22 41  1  0
 22 42  1  0
 23 43  1  1
 24 44  1  0
 24 45  1  0
 25 46  1  1
 27 47  1  0
 28 48  1  0
 29 49  1  0
 30 50  1  0
M  END
$$$$
