
     RDKit          3D

 51 54  0  0  0  0  0  0  0  0999 V2000
   -5.1215    4.7179   -0.7879 N   0  0  0  0  0  0  0  0  0  0  0  0
   -5.6128    3.6511   -0.3945 C   0  0  0  0  0  0  0  0  0  0  0  0
   -6.1569    2.4354    0.0306 C   0  0  0  0  0  0  0  0  0  0  0  0
   -7.5507    2.2568    0.0158 C   0  0  0  0  0  0  0  0  0  0  0  0
   -8.0854    1.0487    0.4250 C   0  0  0  0  0  0  0  0  0  0  0  0
   -7.2863    0.0280    0.8419 C   0  0  0  0  0  0  0  0  0  0  0  0
   -5.9195    0.2050    0.8550 C   0  0  0  0  0  0  0  0  0  0  0  0
   -5.0597   -0.8237    1.3120 N   0  0  0  0  0  0  0  0  0  0  0  0
   -3.6923   -0.8251    0.9300 C   0  0  0  0  0  0  0  0  0  0  0  0
   -3.3201   -1.6964   -0.0604 C   0  0  0  0  0  0  0  0  0  0  0  0
   -2.0196   -1.7415   -0.4967 C   0  0  0  0  0  0  0  0  0  0  0  0
   -1.0972   -0.9004    0.0738 C   0  0  0  0  0  0  0  0  0  0  0  0
    0.2900   -0.9531   -0.3848 C   0  0  1  0  0  0  0  0  0  0  0  0
    1.0126    0.3805   -0.4098 C   0  0  0  0  0  0  0  0  0  0  0  0
    1.3760   -0.6837    0.6057 C   0  0  2  0  0  0  0  0  0  0  0  0
    2.6326   -1.2962    0.5181 N   0  0  0  0  0  0  0  0  0  0  0  0
    3.4879   -0.7606   -0.4968 C   0  0  0  0  0  0  0  0  0  0  0  0
    4.6843   -1.6806   -0.7429 C   0  0  0  0  0  0  0  0  0  0  0  0
    5.9457   -1.2235   -0.0980 C   0  0  0  0  0  0  0  0  0  0  0  0
    6.3915    0.1421   -0.5860 C   0  0  0  0  0  0  0  0  0  0  0  0
    6.9632    0.8264    0.5511 N   0  0  0  0  0  0  0  0  0  0  0  0
    5.1592    0.9562   -1.0098 C   0  0  0  0  0  0  0  0  0  0  0  0
    4.0715    0.5910   -0.0316 C   0  0  0  0  0  0  0  0  0  0  0  0
   -1.4947   -0.0360    1.0632 C   0  0  0  0  0  0  0  0  0  0  0  0
   -2.7762   -0.0179    1.4675 N   0  0  0  0  0  0  0  0  0  0  0  0
   -5.3591    1.3826    0.4588 C   0  0  0  0  0  0  0  0  0  0  0  0
   -8.2121    3.0464   -0.3125 H   0  0  0  0  0  0  0  0  0  0  0  0
   -9.1789    0.9391    0.4055 H   0  0  0  0  0  0  0  0  0  0  0  0
   -7.6799   -0.9258    1.1568 H   0  0  0  0  0  0  0  0  0  0  0  0
   -5.4453   -1.5722    1.9245 H   0  0  0  0  0  0  0  0  0  0  0  0
   -4.0684   -2.3636   -0.5022 H   0  0  0  0  0  0  0  0  0  0  0  0
   -1.7506   -2.4473   -1.2888 H   0  0  0  0  0  0  0  0  0  0  0  0
    0.4993   -1.7085   -1.1794 H   0  0  0  0  0  0  0  0  0  0  0  0
    1.5466    0.5523   -1.3358 H   0  0  0  0  0  0  0  0  0  0  0  0
    0.4472    1.2597    0.0084 H   0  0  0  0  0  0  0  0  0  0  0  0
    1.0432   -0.4756    1.6751 H   0  0  0  0  0  0  0  0  0  0  0  0
    2.7023   -2.3209    0.6534 H   0  0  0  0  0  0  0  0  0  0  0  0
    3.0476   -0.5918   -1.4833 H   0  0  0  0  0  0  0  0  0  0  0  0
    4.8615   -1.8252   -1.8386 H   0  0  0  0  0  0  0  0  0  0  0  0
    4.4200   -2.6803   -0.3594 H   0  0  0  0  0  0  0  0  0  0  0  0
    6.7440   -1.9478   -0.4341 H   0  0  0  0  0  0  0  0  0  0  0  0
    5.9130   -1.3083    0.9880 H   0  0  0  0  0  0  0  0  0  0  0  0
    7.1115    0.0966   -1.3940 H   0  0  0  0  0  0  0  0  0  0  0  0
    6.2571    1.5000    0.9693 H   0  0  0  0  0  0  0  0  0  0  0  0
    7.2129    0.1602    1.3070 H   0  0  0  0  0  0  0  0  0  0  0  0
    4.8677    0.5818   -2.0105 H   0  0  0  0  0  0  0  0  0  0  0  0
    5.3634    2.0507   -0.9856 H   0  0  0  0  0  0  0  0  0  0  0  0
    3.3235    1.3774   -0.0091 H   0  0  0  0  0  0  0  0  0  0  0  0
    4.5552    0.4239    0.9683 H   0  0  0  0  0  0  0  0  0  0  0  0
   -0.7710    0.6590    1.5405 H   0  0  0  0  0  0  0  0  0  0  0  0
   -4.2722    1.5371    0.4632 H   0  0  0  0  0  0  0  0  0  0  0  0
  1  2  3  0
  2  3  1  0
  3  4  2  0
  4  5  1  0
  5  6  2  0
  6  7  1  0
  7  8  1  0
  8  9  1  0
  9 10  2  0
 10 11  1  0
 11 12  2  0
 12 13  1  0
 13 14  1  0
 14 15  1  0
 15 16  1  0
 16 17  1  0
 17 18  1  0
 18 19  1  0
 19 20  1  0
 20 21  1  0
 20 22  1  0
 22 23  1  0
 12 24  1  0
 24 25  2  0
  7 26  2  0
 26  3  1  0
 25  9  1  0
 15 13  1  0
 23 17  1  0
  4 27  1  0
  5 28  1  0
  6 29  1  0
  8 30  1  0
 10 31  1  0
 11 32  1  0
 13 33  1  6
 14 34  1  0
 14 35  1  0
 15 36  1  1
 16 37  1  0
 17 38  1  0
 18 39  1  0
 18 40  1  0
 19 41  1  0
 19 42  1  0
 20 43  1  0
 21 44  1  0
 21 45  1  0
 22 46  1  0
 22 47  1  0
 23 48  1  0
 23 49  1  0
 24 50  1  0
 26 51  1  0
M  END
$$$$
