@<TRIPOS>MOLECULE
*****
 51 54 0 0 0
SMALL
GASTEIGER

@<TRIPOS>ATOM
      1 N          -5.1215    4.7179   -0.7879 N.1     1  UNL1       -0.1909
      2 C          -5.6128    3.6511   -0.3945 C.1     1  UNL1        0.0992
      3 C          -6.1569    2.4354    0.0306 C.ar    1  UNL1        0.0535
      4 C          -7.5507    2.2568    0.0158 C.ar    1  UNL1       -0.0442
      5 C          -8.0854    1.0487    0.4250 C.ar    1  UNL1       -0.0588
      6 C          -7.2863    0.0280    0.8419 C.ar    1  UNL1       -0.0404
      7 C          -5.9195    0.2050    0.8550 C.ar    1  UNL1        0.0336
      8 N          -5.0597   -0.8237    1.3120 N.pl3   1  UNL1       -0.2994
      9 C          -3.6923   -0.8251    0.9300 C.ar    1  UNL1        0.1229
     10 C          -3.3201   -1.6964   -0.0604 C.ar    1  UNL1       -0.0213
     11 C          -2.0196   -1.7415   -0.4967 C.ar    1  UNL1       -0.0536
     12 C          -1.0972   -0.9004    0.0738 C.ar    1  UNL1       -0.0245
     13 C           0.2900   -0.9531   -0.3848 C.3     1  UNL1        0.0024
     14 C           1.0126    0.3805   -0.4098 C.3     1  UNL1       -0.0287
     15 C           1.3760   -0.6837    0.6057 C.3     1  UNL1        0.0154
     16 N           2.6326   -1.2962    0.5181 N.3     1  UNL1       -0.3099
     17 C           3.4879   -0.7606   -0.4968 C.3     1  UNL1        0.0080
     18 C           4.6843   -1.6806   -0.7429 C.3     1  UNL1       -0.0361
     19 C           5.9457   -1.2235   -0.0980 C.3     1  UNL1       -0.0363
     20 C           6.3915    0.1421   -0.5860 C.3     1  UNL1        0.0049
     21 N           6.9632    0.8264    0.5511 N.3     1  UNL1       -0.3272
     22 C           5.1592    0.9562   -1.0098 C.3     1  UNL1       -0.0363
     23 C           4.0715    0.5910   -0.0316 C.3     1  UNL1       -0.0361
     24 C          -1.4947   -0.0360    1.0632 C.ar    1  UNL1        0.0332
     25 N          -2.7762   -0.0179    1.4675 N.ar    1  UNL1       -0.2399
     26 C          -5.3591    1.3826    0.4588 C.ar    1  UNL1       -0.0231
     27 H          -8.2121    3.0464   -0.3125 H       1  UNL1        0.0630
     28 H          -9.1789    0.9391    0.4055 H       1  UNL1        0.0619
     29 H          -7.6799   -0.9258    1.1568 H       1  UNL1        0.0636
     30 H          -5.4453   -1.5722    1.9245 H       1  UNL1        0.1536
     31 H          -4.0684   -2.3636   -0.5022 H       1  UNL1        0.0652
     32 H          -1.7506   -2.4473   -1.2888 H       1  UNL1        0.0622
     33 H           0.4993   -1.7085   -1.1794 H       1  UNL1        0.0365
     34 H           1.5466    0.5523   -1.3358 H       1  UNL1        0.0287
     35 H           0.4472    1.2597    0.0084 H       1  UNL1        0.0287
     36 H           1.0432   -0.4756    1.6751 H       1  UNL1        0.0466
     37 H           2.7023   -2.3209    0.6534 H       1  UNL1        0.1225
     38 H           3.0476   -0.5918   -1.4833 H       1  UNL1        0.0460
     39 H           4.8615   -1.8252   -1.8386 H       1  UNL1        0.0281
     40 H           4.4200   -2.6803   -0.3594 H       1  UNL1        0.0281
     41 H           6.7440   -1.9478   -0.4341 H       1  UNL1        0.0281
     42 H           5.9130   -1.3083    0.9880 H       1  UNL1        0.0281
     43 H           7.1115    0.0966   -1.3940 H       1  UNL1        0.0458
     44 H           6.2571    1.5000    0.9693 H       1  UNL1        0.1185
     45 H           7.2129    0.1602    1.3070 H       1  UNL1        0.1185
     46 H           4.8677    0.5818   -2.0105 H       1  UNL1        0.0281
     47 H           5.3634    2.0507   -0.9856 H       1  UNL1        0.0281
     48 H           3.3235    1.3774   -0.0091 H       1  UNL1        0.0281
     49 H           4.5552    0.4239    0.9683 H       1  UNL1        0.0281
     50 H          -0.7710    0.6590    1.5405 H       1  UNL1        0.0833
     51 H          -4.2722    1.5371    0.4632 H       1  UNL1        0.0649
@<TRIPOS>BOND
     1     1     2    3
     2     2     3    1
     3     3     4   ar
     4     4     5   ar
     5     5     6   ar
     6     6     7   ar
     7     7     8    1
     8     8     9    1
     9     9    10   ar
    10    10    11   ar
    11    11    12   ar
    12    12    13    1
    13    13    14    1
    14    14    15    1
    15    15    16    1
    16    16    17    1
    17    17    18    1
    18    18    19    1
    19    19    20    1
    20    20    21    1
    21    20    22    1
    22    22    23    1
    23    12    24   ar
    24    24    25   ar
    25     7    26   ar
    26    26     3   ar
    27    25     9   ar
    28    15    13    1
    29    23    17    1
    30     4    27    1
    31     5    28    1
    32     6    29    1
    33     8    30    1
    34    10    31    1
    35    11    32    1
    36    13    33    1
    37    14    34    1
    38    14    35    1
    39    15    36    1
    40    16    37    1
    41    17    38    1
    42    18    39    1
    43    18    40    1
    44    19    41    1
    45    19    42    1
    46    20    43    1
    47    21    44    1
    48    21    45    1
    49    22    46    1
    50    22    47    1
    51    23    48    1
    52    23    49    1
    53    24    50    1
    54    26    51    1
