@<TRIPOS>MOLECULE
*****
 30 32 0 0 0
SMALL
GASTEIGER

@<TRIPOS>ATOM
      1 O          -1.7716   -0.5843   -2.7450 O.2     1  UNL1       -0.2869
      2 C          -1.3129   -0.3183   -1.6091 C.ar    1  UNL1        0.1966
      3 C           0.0546   -0.3925   -1.3360 C.ar    1  UNL1        0.0288
      4 C           0.5271   -0.0975   -0.0905 C.ar    1  UNL1        0.1392
      5 C           1.9560   -0.1801    0.1765 C.ar    1  UNL1        0.0176
      6 C           2.8749   -0.5443   -0.7691 C.ar    1  UNL1       -0.0476
      7 C           4.2342   -0.6131   -0.4802 C.ar    1  UNL1       -0.0195
      8 C           4.6977   -0.3126    0.7818 C.ar    1  UNL1        0.1169
      9 O           6.0441   -0.3680    1.1136 O.3     1  UNL1       -0.5068
     10 C           3.7883    0.0578    1.7533 C.ar    1  UNL1       -0.0195
     11 C           2.4501    0.1206    1.4511 C.ar    1  UNL1       -0.0476
     12 O          -0.3336    0.2541    0.8330 O.2     1  UNL1       -0.4544
     13 C          -1.6224    0.3421    0.6405 C.ar    1  UNL1        0.1462
     14 C          -2.4984    0.7196    1.6507 C.ar    1  UNL1        0.0231
     15 C          -3.8624    0.8086    1.4323 C.ar    1  UNL1        0.1239
     16 O          -4.7314    1.1872    2.4493 O.3     1  UNL1       -0.5065
     17 C          -4.3982    0.5201    0.1851 C.ar    1  UNL1        0.0223
     18 C          -3.5244    0.1505   -0.7975 C.ar    1  UNL1        0.1347
     19 O          -3.9851   -0.1555   -2.0780 O.3     1  UNL1       -0.5058
     20 C          -2.1618    0.0572   -0.5952 C.ar    1  UNL1        0.1055
     21 H           0.6739   -0.6964   -2.1832 H       1  UNL1        0.0693
     22 H           2.6044   -0.7961   -1.7799 H       1  UNL1        0.0626
     23 H           4.9747   -0.8993   -1.2159 H       1  UNL1        0.0654
     24 H           6.7635   -0.2881    0.4256 H       1  UNL1        0.2921
     25 H           4.1273    0.3027    2.7664 H       1  UNL1        0.0654
     26 H           1.7501    0.4147    2.2313 H       1  UNL1        0.0626
     27 H          -2.0722    0.9449    2.6279 H       1  UNL1        0.0691
     28 H          -5.7113    0.9313    2.3970 H       1  UNL1        0.2921
     29 H          -5.4689    0.5953    0.0330 H       1  UNL1        0.0691
     30 H          -4.0664   -1.1603   -2.2737 H       1  UNL1        0.2922
@<TRIPOS>BOND
     1     1     2    2
     2     2     3   ar
     3     3     4   ar
     4     4     5    1
     5     5     6   ar
     6     6     7   ar
     7     7     8   ar
     8     8     9    1
     9     8    10   ar
    10    10    11   ar
    11     4    12   ar
    12    12    13   ar
    13    13    14   ar
    14    14    15   ar
    15    15    16    1
    16    15    17   ar
    17    17    18   ar
    18    18    19    1
    19    18    20   ar
    20    20     2   ar
    21    11     5   ar
    22    20    13   ar
    23     3    21    1
    24     6    22    1
    25     7    23    1
    26     9    24    1
    27    10    25    1
    28    11    26    1
    29    14    27    1
    30    16    28    1
    31    17    29    1
    32    19    30    1
