
     RDKit          3D

 30 32  0  0  0  0  0  0  0  0999 V2000
   -1.7716   -0.5843   -2.7450 O   0  0  0  0  0  0  0  0  0  0  0  0
   -1.3129   -0.3183   -1.6091 C   0  0  0  0  0  0  0  0  0  0  0  0
    0.0546   -0.3925   -1.3360 C   0  0  0  0  0  0  0  0  0  0  0  0
    0.5271   -0.0975   -0.0905 C   0  0  0  0  0  0  0  0  0  0  0  0
    1.9560   -0.1801    0.1765 C   0  0  0  0  0  0  0  0  0  0  0  0
    2.8749   -0.5443   -0.7691 C   0  0  0  0  0  0  0  0  0  0  0  0
    4.2342   -0.6131   -0.4802 C   0  0  0  0  0  0  0  0  0  0  0  0
    4.6977   -0.3126    0.7818 C   0  0  0  0  0  0  0  0  0  0  0  0
    6.0441   -0.3680    1.1136 O   0  0  0  0  0  0  0  0  0  0  0  0
    3.7883    0.0578    1.7533 C   0  0  0  0  0  0  0  0  0  0  0  0
    2.4501    0.1206    1.4511 C   0  0  0  0  0  0  0  0  0  0  0  0
   -0.3336    0.2541    0.8330 O   0  0  0  0  0  0  0  0  0  0  0  0
   -1.6224    0.3421    0.6405 C   0  0  0  0  0  0  0  0  0  0  0  0
   -2.4984    0.7196    1.6507 C   0  0  0  0  0  0  0  0  0  0  0  0
   -3.8624    0.8086    1.4323 C   0  0  0  0  0  0  0  0  0  0  0  0
   -4.7314    1.1872    2.4493 O   0  0  0  0  0  0  0  0  0  0  0  0
   -4.3982    0.5201    0.1851 C   0  0  0  0  0  0  0  0  0  0  0  0
   -3.5244    0.1505   -0.7975 C   0  0  0  0  0  0  0  0  0  0  0  0
   -3.9851   -0.1555   -2.0780 O   0  0  0  0  0  0  0  0  0  0  0  0
   -2.1618    0.0572   -0.5952 C   0  0  0  0  0  0  0  0  0  0  0  0
    0.6739   -0.6964   -2.1832 H   0  0  0  0  0  0  0  0  0  0  0  0
    2.6044   -0.7961   -1.7799 H   0  0  0  0  0  0  0  0  0  0  0  0
    4.9747   -0.8993   -1.2159 H   0  0  0  0  0  0  0  0  0  0  0  0
    6.7635   -0.2881    0.4256 H   0  0  0  0  0  0  0  0  0  0  0  0
    4.1273    0.3027    2.7664 H   0  0  0  0  0  0  0  0  0  0  0  0
    1.7501    0.4147    2.2313 H   0  0  0  0  0  0  0  0  0  0  0  0
   -2.0722    0.9449    2.6279 H   0  0  0  0  0  0  0  0  0  0  0  0
   -5.7113    0.9313    2.3970 H   0  0  0  0  0  0  0  0  0  0  0  0
   -5.4689    0.5953    0.0330 H   0  0  0  0  0  0  0  0  0  0  0  0
   -4.0664   -1.1603   -2.2737 H   0  0  0  0  0  0  0  0  0  0  0  0
  1  2  2  0
  2  3  1  0
  3  4  2  0
  4  5  1  0
  5  6  2  0
  6  7  1  0
  7  8  2  0
  8  9  1  0
  8 10  1  0
 10 11  2  0
  4 12  1  0
 12 13  1  0
 13 14  2  0
 14 15  1  0
 15 16  1  0
 15 17  2  0
 17 18  1  0
 18 19  1  0
 18 20  2  0
 20  2  1  0
 11  5  1  0
 20 13  1  0
  3 21  1  0
  6 22  1  0
  7 23  1  0
  9 24  1  0
 10 25  1  0
 11 26  1  0
 14 27  1  0
 16 28  1  0
 17 29  1  0
 19 30  1  0
M  END
$$$$
