
     RDKit          3D

 30 31  0  0  0  0  0  0  0  0999 V2000
   -1.2177    0.7555    0.3388 C   0  0  1  0  0  0  0  0  0  0  0  0
   -1.9810    1.7151    1.2123 C   0  0  0  0  0  0  0  0  0  0  0  0
   -1.3172    2.9351    1.3051 O   0  0  0  0  0  0  0  0  0  0  0  0
    0.0454    0.5270    0.8640 O   0  0  0  0  0  0  0  0  0  0  0  0
    0.8490   -0.2519    0.0967 C   0  0  2  0  0  0  0  0  0  0  0  0
    1.8096   -0.8798    0.9830 N   0  0  0  0  0  0  0  0  0  0  0  0
    2.9904   -0.4440    0.7379 C   0  0  0  0  0  0  0  0  0  0  0  0
    4.0425   -0.9499    1.5078 O   0  0  0  0  0  0  0  0  0  0  0  0
    3.0809    0.5132   -0.3019 N   0  0  0  0  0  0  0  0  0  0  0  0
    4.1722    1.1315   -0.7666 O   0  0  0  0  0  0  0  0  0  0  0  0
    1.7238    0.6367   -0.7103 C   0  0  0  0  0  0  0  0  0  0  0  0
    1.2942    1.3982   -1.6381 O   0  0  0  0  0  0  0  0  0  0  0  0
    0.2155   -1.3320   -0.6960 C   0  0  2  0  0  0  0  0  0  0  0  0
    0.8091   -1.2936   -1.9805 O   0  0  0  0  0  0  0  0  0  0  0  0
   -1.2512   -1.2638   -0.9106 C   0  0  1  0  0  0  0  0  0  0  0  0
   -1.7966   -2.5145   -1.1571 O   0  0  0  0  0  0  0  0  0  0  0  0
   -1.8694   -0.6117    0.3243 C   0  0  2  0  0  0  0  0  0  0  0  0
   -3.2517   -0.5654    0.2734 O   0  0  0  0  0  0  0  0  0  0  0  0
   -1.1030    1.1862   -0.6714 H   0  0  0  0  0  0  0  0  0  0  0  0
   -2.9474    1.9355    0.6715 H   0  0  0  0  0  0  0  0  0  0  0  0
   -2.2521    1.2943    2.1794 H   0  0  0  0  0  0  0  0  0  0  0  0
   -1.6808    3.6107    0.6531 H   0  0  0  0  0  0  0  0  0  0  0  0
    3.9162   -1.2887    2.4451 H   0  0  0  0  0  0  0  0  0  0  0  0
    4.1406    2.0891   -0.5438 H   0  0  0  0  0  0  0  0  0  0  0  0
    0.4505   -2.3501   -0.3216 H   0  0  0  0  0  0  0  0  0  0  0  0
    0.1977   -0.9236   -2.6595 H   0  0  0  0  0  0  0  0  0  0  0  0
   -1.4873   -0.5747   -1.7575 H   0  0  0  0  0  0  0  0  0  0  0  0
   -2.4892   -2.4944   -1.8758 H   0  0  0  0  0  0  0  0  0  0  0  0
   -1.5168   -1.2238    1.1927 H   0  0  0  0  0  0  0  0  0  0  0  0
   -3.5765   -0.7661    1.2059 H   0  0  0  0  0  0  0  0  0  0  0  0
  1  2  1  0
  2  3  1  0
  1  4  1  0
  5  4  1  1
  5  6  1  0
  6  7  2  0
  7  8  1  0
  7  9  1  0
  9 10  1  0
  9 11  1  0
 11 12  2  0
  5 13  1  0
 13 14  1  0
 13 15  1  0
 15 16  1  0
 15 17  1  0
 17 18  1  0
 17  1  1  0
 11  5  1  0
  1 19  1  6
  2 20  1  0
  2 21  1  0
  3 22  1  0
  8 23  1  0
 10 24  1  0
 13 25  1  1
 14 26  1  0
 15 27  1  6
 16 28  1  0
 17 29  1  1
 18 30  1  0
M  END
$$$$
