@<TRIPOS>MOLECULE
*****
 56 58 0 0 0
SMALL
GASTEIGER

@<TRIPOS>ATOM
      1 C          -4.5701    5.1805   -0.5500 C.3     1  UNL1       -0.0319
      2 C          -3.5039    4.1655   -0.5611 C.ar    1  UNL1        0.0068
      3 C          -2.1624    4.2337   -0.7655 C.ar    1  UNL1        0.0383
      4 N          -1.4880    3.1142   -0.7041 N.ar    1  UNL1       -0.2471
      5 C          -1.9545    2.0102   -0.4793 C.ar    1  UNL1        0.1086
      6 C          -1.4644    0.6181   -0.3524 C.ar    1  UNL1        0.0113
      7 C          -2.3134   -0.4203   -0.0812 C.ar    1  UNL1       -0.0102
      8 C          -1.8021   -1.6959    0.0260 C.ar    1  UNL1        0.1224
      9 O          -2.5386   -2.8118    0.2918 O.3     1  UNL1       -0.4865
     10 C          -3.9186   -2.9091    0.5064 C.3     1  UNL1        0.1228
     11 C          -4.1231   -3.3753    1.9308 C.3     1  UNL1       -0.0253
     12 C          -4.5676   -3.8604   -0.4810 C.3     1  UNL1        0.0889
     13 C          -6.0324   -4.0171   -0.2504 C.3     1  UNL1       -0.0355
     14 O          -4.3757   -3.4336   -1.7921 O.3     1  UNL1       -0.3884
     15 C          -0.4347   -1.8689   -0.1481 C.ar    1  UNL1       -0.0078
     16 C           0.4418   -0.8432   -0.4214 C.ar    1  UNL1        0.0408
     17 C           1.8643   -1.0758   -0.5950 C.2     1  UNL1        0.2447
     18 O           2.2893   -2.2571   -0.4896 O.2     1  UNL1       -0.2702
     19 N           2.8116   -0.0768   -0.8738 N.am    1  UNL1       -0.3047
     20 C           4.2379   -0.3307   -1.0449 C.3     1  UNL1        0.0487
     21 C           4.5668    0.1257   -2.4694 C.3     1  UNL1       -0.0423
     22 C           5.0703    0.4138   -0.1143 C.ar    1  UNL1        0.0087
     23 C           6.2036    1.0605   -0.5487 C.ar    1  UNL1        0.0363
     24 N           6.9737    1.7564    0.3442 N.ar    1  UNL1       -0.2321
     25 C           6.6470    1.8239    1.6464 C.ar    1  UNL1        0.2339
     26 C           7.5008    2.5921    2.6209 C.3     1  UNL1        0.4522
     27 F           7.7260    1.8160    3.7607 F       1  UNL1       -0.1632
     28 F           6.8306    3.7481    2.9543 F       1  UNL1       -0.1632
     29 F           8.7122    2.8254    2.0157 F       1  UNL1       -0.1632
     30 N           5.5371    1.1861    2.0516 N.ar    1  UNL1       -0.2321
     31 C           4.7447    0.4880    1.2156 C.ar    1  UNL1        0.0363
     32 C          -0.1177    0.4231   -0.5203 C.ar    1  UNL1       -0.0397
     33 S          -3.7226    2.3883   -0.2765 S.2     1  UNL1       -0.0725
     34 H          -4.8245    5.4490   -1.5944 H       1  UNL1        0.0283
     35 H          -5.4459    4.8819    0.0563 H       1  UNL1        0.0283
     36 H          -4.1700    6.1082   -0.0705 H       1  UNL1        0.0283
     37 H          -1.7031    5.2365   -0.9750 H       1  UNL1        0.0838
     38 H          -3.3643   -0.2319    0.0447 H       1  UNL1        0.0661
     39 H          -4.3927   -1.9141    0.4329 H       1  UNL1        0.0756
     40 H          -3.5004   -2.6871    2.5691 H       1  UNL1        0.0266
     41 H          -5.1551   -3.2544    2.2826 H       1  UNL1        0.0266
     42 H          -3.7238   -4.3880    2.0969 H       1  UNL1        0.0266
     43 H          -4.0617   -4.8425   -0.3996 H       1  UNL1        0.0627
     44 H          -6.2647   -5.0894   -0.0941 H       1  UNL1        0.0256
     45 H          -6.6425   -3.6958   -1.1214 H       1  UNL1        0.0256
     46 H          -6.3685   -3.4559    0.6537 H       1  UNL1        0.0256
     47 H          -5.1384   -2.8591   -2.0434 H       1  UNL1        0.2099
     48 H           0.0198   -2.8679   -0.0720 H       1  UNL1        0.0662
     49 H           2.4918    0.9084   -0.9667 H       1  UNL1        0.1496
     50 H           4.4675   -1.4160   -0.9254 H       1  UNL1        0.0546
     51 H           4.6202    1.2489   -2.4174 H       1  UNL1        0.0251
     52 H           5.5109   -0.2945   -2.8199 H       1  UNL1        0.0251
     53 H           3.7329   -0.0997   -3.1646 H       1  UNL1        0.0251
     54 H           6.4838    1.0173   -1.5975 H       1  UNL1        0.0834
     55 H           3.8550   -0.0221    1.5456 H       1  UNL1        0.0834
     56 H           0.5059    1.2750   -0.7322 H       1  UNL1        0.0632
@<TRIPOS>BOND
     1     1     2    1
     2     2     3   ar
     3     3     4   ar
     4     4     5   ar
     5     5     6    1
     6     6     7   ar
     7     7     8   ar
     8     8     9    1
     9     9    10    1
    10    10    11    1
    11    10    12    1
    12    12    13    1
    13    12    14    1
    14     8    15   ar
    15    15    16   ar
    16    16    17    1
    17    17    18    2
    18    17    19   am
    19    19    20    1
    20    20    21    1
    21    20    22    1
    22    22    23   ar
    23    23    24   ar
    24    24    25   ar
    25    25    26    1
    26    26    27    1
    27    26    28    1
    28    26    29    1
    29    25    30   ar
    30    30    31   ar
    31    16    32   ar
    32     5    33   ar
    33    33     2   ar
    34    32     6   ar
    35    31    22   ar
    36     1    34    1
    37     1    35    1
    38     1    36    1
    39     3    37    1
    40     7    38    1
    41    10    39    1
    42    11    40    1
    43    11    41    1
    44    11    42    1
    45    12    43    1
    46    13    44    1
    47    13    45    1
    48    13    46    1
    49    14    47    1
    50    15    48    1
    51    19    49    1
    52    20    50    1
    53    21    51    1
    54    21    52    1
    55    21    53    1
    56    23    54    1
    57    31    55    1
    58    32    56    1
