
     RDKit          3D

 56 58  0  0  0  0  0  0  0  0999 V2000
   -4.5701    5.1805   -0.5500 C   0  0  0  0  0  0  0  0  0  0  0  0
   -3.5039    4.1655   -0.5611 C   0  0  0  0  0  0  0  0  0  0  0  0
   -2.1624    4.2337   -0.7655 C   0  0  0  0  0  0  0  0  0  0  0  0
   -1.4880    3.1142   -0.7041 N   0  0  0  0  0  0  0  0  0  0  0  0
   -1.9545    2.0102   -0.4793 C   0  0  0  0  0  0  0  0  0  0  0  0
   -1.4644    0.6181   -0.3524 C   0  0  0  0  0  0  0  0  0  0  0  0
   -2.3134   -0.4203   -0.0812 C   0  0  0  0  0  0  0  0  0  0  0  0
   -1.8021   -1.6959    0.0260 C   0  0  0  0  0  0  0  0  0  0  0  0
   -2.5386   -2.8118    0.2918 O   0  0  0  0  0  0  0  0  0  0  0  0
   -3.9186   -2.9091    0.5064 C   0  0  0  0  0  0  0  0  0  0  0  0
   -4.1231   -3.3753    1.9308 C   0  0  0  0  0  0  0  0  0  0  0  0
   -4.5676   -3.8604   -0.4810 C   0  0  0  0  0  0  0  0  0  0  0  0
   -6.0324   -4.0171   -0.2504 C   0  0  0  0  0  0  0  0  0  0  0  0
   -4.3757   -3.4336   -1.7921 O   0  0  0  0  0  0  0  0  0  0  0  0
   -0.4347   -1.8689   -0.1481 C   0  0  0  0  0  0  0  0  0  0  0  0
    0.4418   -0.8432   -0.4214 C   0  0  0  0  0  0  0  0  0  0  0  0
    1.8643   -1.0758   -0.5950 C   0  0  0  0  0  0  0  0  0  0  0  0
    2.2893   -2.2571   -0.4896 O   0  0  0  0  0  0  0  0  0  0  0  0
    2.8116   -0.0768   -0.8738 N   0  0  0  0  0  0  0  0  0  0  0  0
    4.2379   -0.3307   -1.0449 C   0  0  1  0  0  0  0  0  0  0  0  0
    4.5668    0.1257   -2.4694 C   0  0  0  0  0  0  0  0  0  0  0  0
    5.0703    0.4138   -0.1143 C   0  0  0  0  0  0  0  0  0  0  0  0
    6.2036    1.0605   -0.5487 C   0  0  0  0  0  0  0  0  0  0  0  0
    6.9737    1.7564    0.3442 N   0  0  0  0  0  0  0  0  0  0  0  0
    6.6470    1.8239    1.6464 C   0  0  0  0  0  0  0  0  0  0  0  0
    7.5008    2.5921    2.6209 C   0  0  0  0  0  0  0  0  0  0  0  0
    7.7260    1.8160    3.7607 F   0  0  0  0  0  0  0  0  0  0  0  0
    6.8306    3.7481    2.9543 F   0  0  0  0  0  0  0  0  0  0  0  0
    8.7122    2.8254    2.0157 F   0  0  0  0  0  0  0  0  0  0  0  0
    5.5371    1.1861    2.0516 N   0  0  0  0  0  0  0  0  0  0  0  0
    4.7447    0.4880    1.2156 C   0  0  0  0  0  0  0  0  0  0  0  0
   -0.1177    0.4231   -0.5203 C   0  0  0  0  0  0  0  0  0  0  0  0
   -3.7226    2.3883   -0.2765 S   0  0  0  0  0  0  0  0  0  0  0  0
   -4.8245    5.4490   -1.5944 H   0  0  0  0  0  0  0  0  0  0  0  0
   -5.4459    4.8819    0.0563 H   0  0  0  0  0  0  0  0  0  0  0  0
   -4.1700    6.1082   -0.0705 H   0  0  0  0  0  0  0  0  0  0  0  0
   -1.7031    5.2365   -0.9750 H   0  0  0  0  0  0  0  0  0  0  0  0
   -3.3643   -0.2319    0.0447 H   0  0  0  0  0  0  0  0  0  0  0  0
   -4.3927   -1.9141    0.4329 H   0  0  0  0  0  0  0  0  0  0  0  0
   -3.5004   -2.6871    2.5691 H   0  0  0  0  0  0  0  0  0  0  0  0
   -5.1551   -3.2544    2.2826 H   0  0  0  0  0  0  0  0  0  0  0  0
   -3.7238   -4.3880    2.0969 H   0  0  0  0  0  0  0  0  0  0  0  0
   -4.0617   -4.8425   -0.3996 H   0  0  0  0  0  0  0  0  0  0  0  0
   -6.2647   -5.0894   -0.0941 H   0  0  0  0  0  0  0  0  0  0  0  0
   -6.6425   -3.6958   -1.1214 H   0  0  0  0  0  0  0  0  0  0  0  0
   -6.3685   -3.4559    0.6537 H   0  0  0  0  0  0  0  0  0  0  0  0
   -5.1384   -2.8591   -2.0434 H   0  0  0  0  0  0  0  0  0  0  0  0
    0.0198   -2.8679   -0.0720 H   0  0  0  0  0  0  0  0  0  0  0  0
    2.4918    0.9084   -0.9667 H   0  0  0  0  0  0  0  0  0  0  0  0
    4.4675   -1.4160   -0.9254 H   0  0  0  0  0  0  0  0  0  0  0  0
    4.6202    1.2489   -2.4174 H   0  0  0  0  0  0  0  0  0  0  0  0
    5.5109   -0.2945   -2.8199 H   0  0  0  0  0  0  0  0  0  0  0  0
    3.7329   -0.0997   -3.1646 H   0  0  0  0  0  0  0  0  0  0  0  0
    6.4838    1.0173   -1.5975 H   0  0  0  0  0  0  0  0  0  0  0  0
    3.8550   -0.0221    1.5456 H   0  0  0  0  0  0  0  0  0  0  0  0
    0.5059    1.2750   -0.7322 H   0  0  0  0  0  0  0  0  0  0  0  0
  1  2  1  0
  2  3  2  0
  3  4  1  0
  4  5  2  0
  5  6  1  0
  6  7  2  0
  7  8  1  0
  8  9  1  0
  9 10  1  0
 10 11  1  0
 10 12  1  0
 12 13  1  0
 12 14  1  0
  8 15  2  0
 15 16  1  0
 16 17  1  0
 17 18  2  0
 17 19  1  0
 19 20  1  0
 20 21  1  0
 20 22  1  0
 22 23  2  0
 23 24  1  0
 24 25  2  0
 25 26  1  0
 26 27  1  0
 26 28  1  0
 26 29  1  0
 25 30  1  0
 30 31  2  0
 16 32  2  0
  5 33  1  0
 33  2  1  0
 32  6  1  0
 31 22  1  0
  1 34  1  0
  1 35  1  0
  1 36  1  0
  3 37  1  0
  7 38  1  0
 10 39  1  0
 11 40  1  0
 11 41  1  0
 11 42  1  0
 12 43  1  0
 13 44  1  0
 13 45  1  0
 13 46  1  0
 14 47  1  0
 15 48  1  0
 19 49  1  0
 20 50  1  6
 21 51  1  0
 21 52  1  0
 21 53  1  0
 23 54  1  0
 31 55  1  0
 32 56  1  0
M  END
$$$$
