@<TRIPOS>MOLECULE
*****
 66 67 0 0 0
SMALL
GASTEIGER

@<TRIPOS>ATOM
      1 C          -2.5816    5.8468    0.1209 C.3     1  UNL1       -0.0499
      2 C          -2.6033    5.0587   -1.1746 C.3     1  UNL1        0.0595
      3 C          -3.9833    4.4925   -1.4561 C.3     1  UNL1       -0.0499
      4 C          -2.1170    5.9448   -2.2950 C.3     1  UNL1       -0.0499
      5 C          -1.6333    3.9279   -0.9724 C.2     1  UNL1        0.3145
      6 O          -0.5933    3.5829   -1.5549 O.2     1  UNL1       -0.2502
      7 O          -1.9077    3.0549    0.0696 O.3     1  UNL1       -0.4369
      8 C          -1.0719    1.9417    0.3718 C.3     1  UNL1        0.2023
      9 O          -1.6252    1.2913    1.4502 O.3     1  UNL1       -0.2683
     10 P          -0.7885   -0.0569    1.9682 P.3     1  UNL1        0.3635
     11 O          -0.8434   -0.0855    3.4891 O.2     1  UNL1       -0.2559
     12 C           0.9800    0.0026    1.5208 C.3     1  UNL1        0.1490
     13 O           1.1552   -0.1383    0.1595 O.3     1  UNL1       -0.3659
     14 C           2.4718   -0.0583   -0.1744 C.3     1  UNL1        0.0664
     15 C           3.3246   -1.1210    0.4722 C.3     1  UNL1        0.0495
     16 N           4.7154   -0.9705    0.0423 N.ar    1  UNL1       -0.3127
     17 C           5.1902   -1.5974   -1.0537 C.ar    1  UNL1        0.0984
     18 N           6.4816   -1.2869   -1.2138 N.ar    1  UNL1       -0.2306
     19 C           6.8500   -0.4673   -0.2363 C.ar    1  UNL1        0.1472
     20 C           8.0318    0.1762    0.1202 C.ar    1  UNL1        0.1472
     21 N           9.1194   -0.0784   -0.7370 N.pl3   1  UNL1       -0.3413
     22 N           8.0603    0.9735    1.2229 N.ar    1  UNL1       -0.2188
     23 C           6.9301    1.1363    1.9712 C.ar    1  UNL1        0.1205
     24 N           5.7567    0.5213    1.6508 N.ar    1  UNL1       -0.2160
     25 C           5.7240   -0.2640    0.5668 C.ar    1  UNL1        0.1654
     26 O          -1.4044   -1.5092    1.4004 O.3     1  UNL1       -0.2683
     27 C          -2.3432   -1.3870    0.4025 C.3     1  UNL1        0.2023
     28 O          -2.8525   -2.6301   -0.0647 O.3     1  UNL1       -0.4369
     29 C          -3.5083   -3.5128    0.7821 C.2     1  UNL1        0.3145
     30 O          -3.6577   -3.2040    2.0040 O.2     1  UNL1       -0.2502
     31 C          -3.9537   -4.7400    0.0913 C.3     1  UNL1        0.0595
     32 C          -2.7595   -5.4669   -0.4921 C.3     1  UNL1       -0.0499
     33 C          -5.0224   -4.4693   -0.9471 C.3     1  UNL1       -0.0499
     34 C          -4.6245   -5.6129    1.1586 C.3     1  UNL1       -0.0499
     35 H          -1.8324    6.6541    0.0402 H       1  UNL1        0.0240
     36 H          -2.3649    5.1573    0.9682 H       1  UNL1        0.0240
     37 H          -3.5594    6.3255    0.3201 H       1  UNL1        0.0240
     38 H          -4.4163    4.8727   -2.4026 H       1  UNL1        0.0240
     39 H          -4.6192    4.7300   -0.5729 H       1  UNL1        0.0240
     40 H          -3.9669    3.3892   -1.5324 H       1  UNL1        0.0240
     41 H          -1.6628    6.8840   -1.8916 H       1  UNL1        0.0240
     42 H          -1.3631    5.4263   -2.9372 H       1  UNL1        0.0240
     43 H          -2.9376    6.2188   -3.0016 H       1  UNL1        0.0240
     44 H          -0.1116    2.3873    0.7169 H       1  UNL1        0.1022
     45 H          -0.8917    1.3149   -0.5087 H       1  UNL1        0.1022
     46 H           1.5102    0.8440    1.9745 H       1  UNL1        0.0687
     47 H           1.4018   -0.9317    2.0028 H       1  UNL1        0.0687
     48 H           2.9015    0.9504    0.0522 H       1  UNL1        0.0578
     49 H           2.5779   -0.2451   -1.2856 H       1  UNL1        0.0578
     50 H           3.3246   -1.0621    1.5937 H       1  UNL1        0.0515
     51 H           2.9293   -2.1088    0.1690 H       1  UNL1        0.0515
     52 H           4.6600   -2.2600   -1.7369 H       1  UNL1        0.1029
     53 H          10.0962   -0.4125   -0.6127 H       1  UNL1        0.1438
     54 H           8.9720    0.0919   -1.7724 H       1  UNL1        0.1438
     55 H           7.1022    1.7880    2.8042 H       1  UNL1        0.1048
     56 H          -1.8043   -0.9188   -0.4710 H       1  UNL1        0.1022
     57 H          -3.1778   -0.7495    0.7369 H       1  UNL1        0.1022
     58 H          -1.8150   -4.9095   -0.3320 H       1  UNL1        0.0240
     59 H          -2.6423   -6.4853   -0.0733 H       1  UNL1        0.0240
     60 H          -2.8777   -5.5523   -1.5960 H       1  UNL1        0.0240
     61 H          -5.6287   -3.6386   -0.5572 H       1  UNL1        0.0240
     62 H          -5.6289   -5.3941   -1.0402 H       1  UNL1        0.0240
     63 H          -4.6077   -4.2805   -1.9520 H       1  UNL1        0.0240
     64 H          -3.8812   -6.2175    1.7094 H       1  UNL1        0.0240
     65 H          -5.4183   -6.2516    0.7022 H       1  UNL1        0.0240
     66 H          -5.1843   -4.9110    1.8228 H       1  UNL1        0.0240
@<TRIPOS>BOND
     1     1     2    1
     2     2     3    1
     3     2     4    1
     4     2     5    1
     5     5     6    2
     6     5     7    1
     7     7     8    1
     8     8     9    1
     9     9    10    1
    10    10    11    2
    11    10    12    1
    12    12    13    1
    13    13    14    1
    14    14    15    1
    15    15    16    1
    16    16    17   ar
    17    17    18   ar
    18    18    19   ar
    19    19    20   ar
    20    20    21    1
    21    20    22   ar
    22    22    23   ar
    23    23    24   ar
    24    24    25   ar
    25    10    26    1
    26    26    27    1
    27    27    28    1
    28    28    29    1
    29    29    30    2
    30    29    31    1
    31    31    32    1
    32    31    33    1
    33    31    34    1
    34    25    16   ar
    35    25    19   ar
    36     1    35    1
    37     1    36    1
    38     1    37    1
    39     3    38    1
    40     3    39    1
    41     3    40    1
    42     4    41    1
    43     4    42    1
    44     4    43    1
    45     8    44    1
    46     8    45    1
    47    12    46    1
    48    12    47    1
    49    14    48    1
    50    14    49    1
    51    15    50    1
    52    15    51    1
    53    17    52    1
    54    21    53    1
    55    21    54    1
    56    23    55    1
    57    27    56    1
    58    27    57    1
    59    32    58    1
    60    32    59    1
    61    32    60    1
    62    33    61    1
    63    33    62    1
    64    33    63    1
    65    34    64    1
    66    34    65    1
    67    34    66    1
