@<TRIPOS>MOLECULE
*****
 37 37 0 0 0
SMALL
GASTEIGER

@<TRIPOS>ATOM
      1 C           3.4146    2.2365   -0.3918 C.3     1  UNL1       -0.0494
      2 C           3.6855    0.8403    0.0723 C.3     1  UNL1        0.0093
      3 N           2.5673   -0.0302    0.2411 N.pl3   1  UNL1       -0.3303
      4 C           3.1769   -1.2276    0.8395 C.3     1  UNL1        0.0093
      5 C           4.0938   -1.8824   -0.1846 C.3     1  UNL1       -0.0494
      6 C           1.1888    0.0123   -0.0697 C.ar    1  UNL1        0.0332
      7 C           0.5563    0.9767   -0.7797 C.ar    1  UNL1        0.0015
      8 C          -0.7886    1.0658   -1.0561 C.ar    1  UNL1        0.1257
      9 O          -1.3777    2.0786   -1.7899 O.3     1  UNL1       -0.5061
     10 C          -1.6099    0.0543   -0.5544 C.ar    1  UNL1        0.0170
     11 C          -3.0426    0.0818   -0.8092 C.2     1  UNL1       -0.0414
     12 C          -4.0630   -0.1879   -0.0522 C.2     1  UNL1        0.0340
     13 C          -3.8418   -0.6107    1.3442 C.3     1  UNL1       -0.0329
     14 C          -5.3970   -0.0708   -0.5820 C.2     1  UNL1        0.3325
     15 O          -6.5504   -0.3342    0.1379 O.3     1  UNL1       -0.4773
     16 O          -5.7841    0.2690   -1.7234 O.2     1  UNL1       -0.2455
     17 C          -0.9857   -0.9620    0.1854 C.ar    1  UNL1       -0.0494
     18 C           0.3624   -0.9624    0.4063 C.ar    1  UNL1       -0.0399
     19 H           2.6058    2.6673    0.2282 H       1  UNL1        0.0245
     20 H           3.3084    2.3707   -1.4767 H       1  UNL1        0.0245
     21 H           4.3126    2.9036   -0.1426 H       1  UNL1        0.0245
     22 H           4.4740    0.3634   -0.6013 H       1  UNL1        0.0461
     23 H           4.2789    0.9734    1.0332 H       1  UNL1        0.0461
     24 H           3.8246   -0.9215    1.6916 H       1  UNL1        0.0461
     25 H           2.4436   -1.9777    1.1675 H       1  UNL1        0.0461
     26 H           3.7187   -1.7976   -1.2237 H       1  UNL1        0.0245
     27 H           5.1211   -1.5160   -0.1647 H       1  UNL1        0.0245
     28 H           4.1057   -2.9733    0.0544 H       1  UNL1        0.0245
     29 H           1.0841    1.7833   -1.2226 H       1  UNL1        0.0673
     30 H          -1.6221    2.9302   -1.3042 H       1  UNL1        0.2922
     31 H          -3.2526    0.3907   -1.8469 H       1  UNL1        0.0629
     32 H          -2.9746   -0.1343    1.8071 H       1  UNL1        0.0280
     33 H          -3.8852   -1.7226    1.4797 H       1  UNL1        0.0280
     34 H          -4.7278   -0.2453    1.9166 H       1  UNL1        0.0280
     35 H          -7.3131   -0.9174   -0.1923 H       1  UNL1        0.2954
     36 H          -1.7025   -1.7029    0.5318 H       1  UNL1        0.0625
     37 H           0.5954   -1.8211    0.9909 H       1  UNL1        0.0636
@<TRIPOS>BOND
     1     1     2    1
     2     2     3    1
     3     3     4    1
     4     4     5    1
     5     3     6    1
     6     6     7   ar
     7     7     8   ar
     8     8     9    1
     9     8    10   ar
    10    10    11    1
    11    11    12    2
    12    12    13    1
    13    12    14    1
    14    14    15    1
    15    14    16    2
    16    10    17   ar
    17    17    18   ar
    18    18     6   ar
    19     1    19    1
    20     1    20    1
    21     1    21    1
    22     2    22    1
    23     2    23    1
    24     4    24    1
    25     4    25    1
    26     5    26    1
    27     5    27    1
    28     5    28    1
    29     7    29    1
    30     9    30    1
    31    11    31    1
    32    13    32    1
    33    13    33    1
    34    13    34    1
    35    15    35    1
    36    17    36    1
    37    18    37    1
