@<TRIPOS>MOLECULE
*****
 71 72 0 0 0
SMALL
GASTEIGER

@<TRIPOS>ATOM
      1 C          -7.1977   -2.1820   -0.5586 C.3     0  UNK0       -0.0253
      2 C          -7.3724   -1.0720    0.4635 C.3     0  UNK0        0.1068
      3 C          -7.9992    0.1567   -0.1036 C.3     0  UNK0       -0.0253
      4 C          -8.2905   -1.6191    1.5505 C.3     0  UNK0       -0.0253
      5 O          -6.1215   -0.8120    1.1229 O.3     0  UNK0       -0.4447
      6 C          -5.0293   -0.4113    0.3760 C.2     0  UNK0        0.4016
      7 O          -5.1932   -0.2908   -0.8687 O.2     0  UNK0       -0.2264
      8 N          -3.7614   -0.1326    0.9032 N.am    1  UNK1       -0.2658
      9 C          -2.6279    0.2931    0.0510 C.3     1  UNK1        0.1279
     10 C          -1.5653   -0.7395    0.0972 C.2     1  UNK1        0.2411
     11 O          -1.7231   -1.7235    0.8725 O.2     1  UNK1       -0.2732
     12 N          -0.3740   -0.6772   -0.6904 N.am    2  PRO2       -0.2881
     13 CD          0.0092    0.3269   -1.6564 C.3     2  PRO2        0.0156
     14 CG          1.0215   -0.3601   -2.5577 C.3     2  PRO2       -0.0350
     15 CB          1.0214   -1.8135   -2.1239 C.3     2  PRO2       -0.0243
     16 CA          0.7057   -1.6451   -0.6503 C.3     2  PRO2        0.1023
     17 C           1.8334   -1.0488    0.0898 C.2     2  PRO2        0.2341
     18 O           1.7612    0.1195    0.5358 O.2     2  PRO2       -0.2738
     19 N           3.0364   -1.7688    0.3246 N.am    3  ARG3       -0.3044
     20 CA          4.1812   -1.2490    1.0369 C.3     3  ARG3        0.0786
     21 C           4.3936   -2.0021    2.3054 C.2     3  ARG3        0.1404
     22 O           5.2922   -1.7524    3.0695 O.2     3  ARG3       -0.2991
     23 CB          5.3862   -1.3366    0.1383 C.3     3  ARG3       -0.0250
     24 CG          6.6506   -0.8271    0.7494 C.3     3  ARG3       -0.0202
     25 CD          6.5745    0.6317    1.1404 C.3     3  ARG3        0.0647
     26 NE          6.3027    1.4747   -0.0118 N.pl3   3  ARG3       -0.2761
     27 CZ          7.2858    1.6261   -1.0427 C.cat   3  ARG3        0.3762
     28 NH1         8.5373    1.5739   -0.7240 N.pl3   3  ARG3       -0.1298
     29 NH2         6.8870    1.8275   -2.3883 N.pl3   3  ARG3       -0.2893
     30 C          -2.1452    1.6123    0.4772 C.ar    1  UNK1       -0.0168
     31 C          -1.8867    1.8058    1.8140 C.ar    1  UNK1       -0.0549
     32 C          -1.4377    3.0194    2.2869 C.ar    1  UNK1       -0.0416
     33 C          -1.2645    4.0171    1.3508 C.ar    1  UNK1        0.0593
     34 CL         -0.6934    5.5902    1.8767 Cl      1  UNK1       -0.0820
     35 C          -1.5169    3.8458    0.0085 C.ar    1  UNK1        0.0596
     36 CL         -1.2686    5.1766   -1.1366 Cl      1  UNK1       -0.0820
     37 C          -1.9638    2.6181   -0.4177 C.ar    1  UNK1       -0.0366
     38 H          -8.1059   -2.8135   -0.5304 H       0  UNK0        0.0268
     39 H          -7.0872   -1.7894   -1.5885 H       0  UNK0        0.0268
     40 H          -6.3447   -2.7968   -0.2436 H       0  UNK0        0.0268
     41 H          -8.2914   -0.0452   -1.1732 H       0  UNK0        0.0268
     42 H          -7.3774    1.0608   -0.0239 H       0  UNK0        0.0268
     43 H          -8.9730    0.4160    0.4062 H       0  UNK0        0.0268
     44 H          -8.0475   -1.2071    2.5380 H       0  UNK0        0.0268
     45 H          -9.3314   -1.4017    1.2171 H       0  UNK0        0.0268
     46 H          -8.1236   -2.7346    1.6066 H       0  UNK0        0.0268
     47 H          -3.5910   -0.2228    1.9276 H       1  UNK1        0.1531
     48 H          -3.0228    0.3618   -0.9692 H       1  UNK1        0.0647
     49 HD1         0.4761    1.1685   -1.0959 H       2  PRO2        0.0465
     50 HD2        -0.8662    0.6787   -2.2513 H       2  PRO2        0.0465
     51 HG1         2.0215    0.0949   -2.4699 H       2  PRO2        0.0281
     52 HG2         0.6453   -0.2936   -3.5905 H       2  PRO2        0.0281
     53 HB1         0.2085   -2.3754   -2.5873 H       2  PRO2        0.0288
     54 HB2         1.9670   -2.3186   -2.3143 H       2  PRO2        0.0288
     55 HA          0.3667   -2.5981   -0.1839 H       2  PRO2        0.0597
     56 H           3.0713   -2.7341   -0.0535 H       3  ARG3        0.1494
     57 HA          3.9758   -0.2014    1.2950 H       3  ARG3        0.0574
     58 H           3.7120   -2.8025    2.5448 H       3  ARG3        0.1046
     59 HB1         5.1806   -0.8082   -0.8051 H       3  ARG3        0.0288
     60 HB2         5.5407   -2.4409   -0.0432 H       3  ARG3        0.0288
     61 HG1         7.4300   -0.8826   -0.0672 H       3  ARG3        0.0296
     62 HG2         7.0484   -1.4162    1.5750 H       3  ARG3        0.0296
     63 HD1         5.8328    0.8560    1.9075 H       3  ARG3        0.0655
     64 HD2         7.5706    0.9376    1.5219 H       3  ARG3        0.0655
     65 HE          5.4094    1.9803   -0.1209 H       3  ARG3        0.2579
     66 HH1         9.2468    1.6808   -1.4531 H       3  ARG3        0.3062
     67 HH21        7.0346    2.7053   -2.8939 H       3  ARG3        0.2546
     68 HH22        6.4099    1.0306   -2.9041 H       3  ARG3        0.2546
     69 H          -2.0339    0.9897    2.5406 H       1  UNK1        0.0621
     70 H          -1.2319    3.1729    3.3557 H       1  UNK1        0.0633
     71 H          -2.1680    2.4973   -1.4948 H       1  UNK1        0.0636
@<TRIPOS>BOND
     1     1     2    1
     2     2     3    1
     3     2     4    1
     4     2     5    1
     5     5     6    1
     6     6     7    2
     7     6     8   am
     8     8     9    1
     9     9    10    1
    10    10    11    2
    11    10    12   am
    12    12    13    1
    13    13    14    1
    14    14    15    1
    15    15    16    1
    16    16    17    1
    17    17    18    2
    18    17    19   am
    19    19    20    1
    20    20    21    1
    21    21    22    2
    22    20    23    1
    23    23    24    1
    24    24    25    1
    25    25    26    1
    26    26    27    1
    27    27    28    2
    28    27    29    1
    29     9    30    1
    30    30    31   ar
    31    31    32   ar
    32    32    33   ar
    33    33    34    1
    34    33    35   ar
    35    35    36    1
    36    35    37   ar
    37    16    12    1
    38    37    30   ar
    39     1    38    1
    40     1    39    1
    41     1    40    1
    42     3    41    1
    43     3    42    1
    44     3    43    1
    45     4    44    1
    46     4    45    1
    47     4    46    1
    48     8    47    1
    49     9    48    1
    50    13    49    1
    51    13    50    1
    52    14    51    1
    53    14    52    1
    54    15    53    1
    55    15    54    1
    56    16    55    1
    57    19    56    1
    58    20    57    1
    59    21    58    1
    60    23    59    1
    61    23    60    1
    62    24    61    1
    63    24    62    1
    64    25    63    1
    65    25    64    1
    66    26    65    1
    67    28    66    1
    68    29    67    1
    69    29    68    1
    70    31    69    1
    71    32    70    1
    72    37    71    1
