
     RDKit          3D

 71 72  0  0  0  0  0  0  0  0999 V2000
   -7.1977   -2.1820   -0.5586 C   0  0  0  0  0  0  0  0  0  0  0  0
   -7.3724   -1.0720    0.4635 C   0  0  0  0  0  0  0  0  0  0  0  0
   -7.9992    0.1567   -0.1036 C   0  0  0  0  0  0  0  0  0  0  0  0
   -8.2905   -1.6191    1.5505 C   0  0  0  0  0  0  0  0  0  0  0  0
   -6.1215   -0.8120    1.1229 O   0  0  0  0  0  0  0  0  0  0  0  0
   -5.0293   -0.4113    0.3760 C   0  0  0  0  0  0  0  0  0  0  0  0
   -5.1932   -0.2908   -0.8687 O   0  0  0  0  0  0  0  0  0  0  0  0
   -3.7614   -0.1326    0.9032 N   0  0  0  0  0  0  0  0  0  0  0  0
   -2.6279    0.2931    0.0510 C   0  0  0  0  0  0  0  0  0  0  0  0
   -1.5653   -0.7395    0.0972 C   0  0  0  0  0  0  0  0  0  0  0  0
   -1.7231   -1.7235    0.8725 O   0  0  0  0  0  0  0  0  0  0  0  0
   -0.3740   -0.6772   -0.6904 N   0  0  0  0  0  0  0  0  0  0  0  0
    0.0092    0.3269   -1.6564 C   0  0  0  0  0  0  0  0  0  0  0  0
    1.0215   -0.3601   -2.5577 C   0  0  0  0  0  0  0  0  0  0  0  0
    1.0214   -1.8135   -2.1239 C   0  0  0  0  0  0  0  0  0  0  0  0
    0.7057   -1.6451   -0.6503 C   0  0  1  0  0  0  0  0  0  0  0  0
    1.8334   -1.0488    0.0898 C   0  0  0  0  0  0  0  0  0  0  0  0
    1.7612    0.1195    0.5358 O   0  0  0  0  0  0  0  0  0  0  0  0
    3.0364   -1.7688    0.3246 N   0  0  0  0  0  0  0  0  0  0  0  0
    4.1812   -1.2490    1.0369 C   0  0  0  0  0  0  0  0  0  0  0  0
    4.3936   -2.0021    2.3054 C   0  0  0  0  0  0  0  0  0  0  0  0
    5.2922   -1.7524    3.0695 O   0  0  0  0  0  0  0  0  0  0  0  0
    5.3862   -1.3366    0.1383 C   0  0  0  0  0  0  0  0  0  0  0  0
    6.6506   -0.8271    0.7494 C   0  0  0  0  0  0  0  0  0  0  0  0
    6.5745    0.6317    1.1404 C   0  0  0  0  0  0  0  0  0  0  0  0
    6.3027    1.4747   -0.0118 N   0  0  0  0  0  0  0  0  0  0  0  0
    7.2858    1.6261   -1.0427 C   0  0  0  0  0  0  0  0  0  0  0  0
    8.5373    1.5739   -0.7240 N   0  0  0  0  0  0  0  0  0  0  0  0
    6.8870    1.8275   -2.3883 N   0  0  0  0  0  0  0  0  0  0  0  0
   -2.1452    1.6123    0.4772 C   0  0  0  0  0  0  0  0  0  0  0  0
   -1.8867    1.8058    1.8140 C   0  0  0  0  0  0  0  0  0  0  0  0
   -1.4377    3.0194    2.2869 C   0  0  0  0  0  0  0  0  0  0  0  0
   -1.2645    4.0171    1.3508 C   0  0  0  0  0  0  0  0  0  0  0  0
   -0.6934    5.5902    1.8767 Cl  0  0  0  0  0  0  0  0  0  0  0  0
   -1.5169    3.8458    0.0085 C   0  0  0  0  0  0  0  0  0  0  0  0
   -1.2686    5.1766   -1.1366 Cl  0  0  0  0  0  0  0  0  0  0  0  0
   -1.9638    2.6181   -0.4177 C   0  0  0  0  0  0  0  0  0  0  0  0
   -8.1059   -2.8135   -0.5304 H   0  0  0  0  0  0  0  0  0  0  0  0
   -7.0872   -1.7894   -1.5885 H   0  0  0  0  0  0  0  0  0  0  0  0
   -6.3447   -2.7968   -0.2436 H   0  0  0  0  0  0  0  0  0  0  0  0
   -8.2914   -0.0452   -1.1732 H   0  0  0  0  0  0  0  0  0  0  0  0
   -7.3774    1.0608   -0.0239 H   0  0  0  0  0  0  0  0  0  0  0  0
   -8.9730    0.4160    0.4062 H   0  0  0  0  0  0  0  0  0  0  0  0
   -8.0475   -1.2071    2.5380 H   0  0  0  0  0  0  0  0  0  0  0  0
   -9.3314   -1.4017    1.2171 H   0  0  0  0  0  0  0  0  0  0  0  0
   -8.1236   -2.7346    1.6066 H   0  0  0  0  0  0  0  0  0  0  0  0
   -3.5910   -0.2228    1.9276 H   0  0  0  0  0  0  0  0  0  0  0  0
   -3.0228    0.3618   -0.9692 H   0  0  0  0  0  0  0  0  0  0  0  0
    0.4761    1.1685   -1.0959 H   0  0  0  0  0  0  0  0  0  0  0  0
   -0.8662    0.6787   -2.2513 H   0  0  0  0  0  0  0  0  0  0  0  0
    2.0215    0.0949   -2.4699 H   0  0  0  0  0  0  0  0  0  0  0  0
    0.6453   -0.2936   -3.5905 H   0  0  0  0  0  0  0  0  0  0  0  0
    0.2085   -2.3754   -2.5873 H   0  0  0  0  0  0  0  0  0  0  0  0
    1.9670   -2.3186   -2.3143 H   0  0  0  0  0  0  0  0  0  0  0  0
    0.3667   -2.5981   -0.1839 H   0  0  0  0  0  0  0  0  0  0  0  0
    3.0713   -2.7341   -0.0535 H   0  0  0  0  0  0  0  0  0  0  0  0
    3.9758   -0.2014    1.2950 H   0  0  0  0  0  0  0  0  0  0  0  0
    3.7120   -2.8025    2.5448 H   0  0  0  0  0  0  0  0  0  0  0  0
    5.1806   -0.8082   -0.8051 H   0  0  0  0  0  0  0  0  0  0  0  0
    5.5407   -2.4409   -0.0432 H   0  0  0  0  0  0  0  0  0  0  0  0
    7.4300   -0.8826   -0.0672 H   0  0  0  0  0  0  0  0  0  0  0  0
    7.0484   -1.4162    1.5750 H   0  0  0  0  0  0  0  0  0  0  0  0
    5.8328    0.8560    1.9075 H   0  0  0  0  0  0  0  0  0  0  0  0
    7.5706    0.9376    1.5219 H   0  0  0  0  0  0  0  0  0  0  0  0
    5.4094    1.9803   -0.1209 H   0  0  0  0  0  0  0  0  0  0  0  0
    9.2468    1.6808   -1.4531 H   0  0  0  0  0  0  0  0  0  0  0  0
    7.0346    2.7053   -2.8939 H   0  0  0  0  0  0  0  0  0  0  0  0
    6.4099    1.0306   -2.9041 H   0  0  0  0  0  0  0  0  0  0  0  0
   -2.0339    0.9897    2.5406 H   0  0  0  0  0  0  0  0  0  0  0  0
   -1.2319    3.1729    3.3557 H   0  0  0  0  0  0  0  0  0  0  0  0
   -2.1680    2.4973   -1.4948 H   0  0  0  0  0  0  0  0  0  0  0  0
  1  2  1  0
  2  3  1  0
  2  4  1  0
  2  5  1  0
  5  6  1  0
  6  7  2  0
  6  8  1  0
  8  9  1  0
  9 10  1  0
 10 11  2  0
 10 12  1  0
 12 13  1  0
 13 14  1  0
 14 15  1  0
 15 16  1  0
 16 17  1  0
 17 18  2  0
 17 19  1  0
 19 20  1  0
 20 21  1  0
 21 22  2  0
 20 23  1  0
 23 24  1  0
 24 25  1  0
 25 26  1  0
 26 27  1  0
 27 28  2  3
 27 29  1  0
  9 30  1  0
 30 31  2  0
 31 32  1  0
 32 33  2  0
 33 34  1  0
 33 35  1  0
 35 36  1  0
 35 37  2  0
 16 12  1  0
 37 30  1  0
  1 38  1  0
  1 39  1  0
  1 40  1  0
  3 41  1  0
  3 42  1  0
  3 43  1  0
  4 44  1  0
  4 45  1  0
  4 46  1  0
  8 47  1  0
  9 48  1  0
 13 49  1  0
 13 50  1  0
 14 51  1  0
 14 52  1  0
 15 53  1  0
 15 54  1  0
 16 55  1  1
 19 56  1  0
 20 57  1  0
 21 58  1  0
 23 59  1  0
 23 60  1  0
 24 61  1  0
 24 62  1  0
 25 63  1  0
 25 64  1  0
 26 65  1  0
 28 66  1  0
 29 67  1  0
 29 68  1  0
 31 69  1  0
 32 70  1  0
 37 71  1  0
M  END
$$$$
