@<TRIPOS>MOLECULE
*****
 38 41 0 0 0
SMALL
GASTEIGER

@<TRIPOS>ATOM
      1 F          -3.9916   -4.5143   -0.1432 F       1  UNL1       -0.2055
      2 C          -3.4393   -3.2837    0.0851 C.ar    1  UNL1        0.1234
      3 C          -3.2832   -2.3662   -0.9352 C.ar    1  UNL1       -0.0258
      4 C          -2.7228   -1.1307   -0.6812 C.ar    1  UNL1       -0.0498
      5 C          -2.2974   -0.7492    0.5712 C.ar    1  UNL1        0.0026
      6 C          -1.6930    0.5496    0.8736 C.ar    1  UNL1        0.0967
      7 N          -2.2992    1.5732    1.5458 N.ar    1  UNL1       -0.2351
      8 C          -1.4790    2.6283    1.6549 C.ar    1  UNL1        0.0972
      9 N          -0.3326    2.2823    1.0472 N.ar    1  UNL1       -0.3241
     10 C           0.8370    3.1033    0.9195 C.3     1  UNL1        0.0852
     11 C           0.8108    3.9255   -0.3368 C.3     1  UNL1        0.2569
     12 F           0.7483    3.1158   -1.4513 F       1  UNL1       -0.2073
     13 F          -0.2121    4.8552   -0.3214 F       1  UNL1       -0.2073
     14 C          -0.4364    1.0121    0.5589 C.ar    1  UNL1        0.0780
     15 C           0.5754    0.2582   -0.1599 C.ar    1  UNL1        0.0172
     16 C           0.4420   -0.0703   -1.4758 C.ar    1  UNL1       -0.0477
     17 C           1.4582   -0.7972   -2.0790 C.ar    1  UNL1       -0.0182
     18 C           2.5920   -1.2039   -1.4218 C.ar    1  UNL1        0.1375
     19 N           3.6798   -1.9015   -1.8037 N.ar    1  UNL1       -0.2361
     20 C           4.5054   -2.0222   -0.7489 C.ar    1  UNL1        0.0464
     21 C           3.8846   -1.3731    0.2954 C.ar    1  UNL1        0.0293
     22 N           2.7002   -0.8620   -0.1059 N.ar    1  UNL1       -0.3060
     23 C           1.7381   -0.1637    0.4988 C.ar    1  UNL1        0.0204
     24 C          -2.4580   -1.6773    1.5915 C.ar    1  UNL1       -0.0498
     25 C          -3.0188   -2.9201    1.3484 C.ar    1  UNL1       -0.0258
     26 H          -3.6167   -2.6604   -1.9256 H       1  UNL1        0.0646
     27 H          -2.6279   -0.4469   -1.5105 H       1  UNL1        0.0625
     28 H          -1.7163    3.5828    2.1503 H       1  UNL1        0.1029
     29 H           1.7811    2.5335    0.9370 H       1  UNL1        0.0548
     30 H           0.8334    3.8227    1.7760 H       1  UNL1        0.0548
     31 H           1.7590    4.5057   -0.4250 H       1  UNL1        0.1037
     32 H          -0.4223    0.2255   -2.0400 H       1  UNL1        0.0626
     33 H           1.3341   -1.0448   -3.1115 H       1  UNL1        0.0654
     34 H           5.4788   -2.5347   -0.7231 H       1  UNL1        0.0845
     35 H           4.3063   -1.2973    1.2855 H       1  UNL1        0.0829
     36 H           1.8596    0.0938    1.5577 H       1  UNL1        0.0820
     37 H          -2.1302   -1.3984    2.5905 H       1  UNL1        0.0625
     38 H          -3.1475   -3.6500    2.1368 H       1  UNL1        0.0646
@<TRIPOS>BOND
     1     1     2    1
     2     2     3   ar
     3     3     4   ar
     4     4     5   ar
     5     5     6    1
     6     6     7   ar
     7     7     8   ar
     8     8     9   ar
     9     9    10    1
    10    10    11    1
    11    11    12    1
    12    11    13    1
    13     9    14   ar
    14    14    15    1
    15    15    16   ar
    16    16    17   ar
    17    17    18   ar
    18    18    19   ar
    19    19    20   ar
    20    20    21   ar
    21    21    22   ar
    22    22    23   ar
    23     5    24   ar
    24    24    25   ar
    25    25     2   ar
    26    14     6   ar
    27    23    15   ar
    28    22    18   ar
    29     3    26    1
    30     4    27    1
    31     8    28    1
    32    10    29    1
    33    10    30    1
    34    11    31    1
    35    16    32    1
    36    17    33    1
    37    20    34    1
    38    21    35    1
    39    23    36    1
    40    24    37    1
    41    25    38    1
