
     RDKit          3D

 38 41  0  0  0  0  0  0  0  0999 V2000
   -3.9916   -4.5143   -0.1432 F   0  0  0  0  0  0  0  0  0  0  0  0
   -3.4393   -3.2837    0.0851 C   0  0  0  0  0  0  0  0  0  0  0  0
   -3.2832   -2.3662   -0.9352 C   0  0  0  0  0  0  0  0  0  0  0  0
   -2.7228   -1.1307   -0.6812 C   0  0  0  0  0  0  0  0  0  0  0  0
   -2.2974   -0.7492    0.5712 C   0  0  0  0  0  0  0  0  0  0  0  0
   -1.6930    0.5496    0.8736 C   0  0  0  0  0  0  0  0  0  0  0  0
   -2.2992    1.5732    1.5458 N   0  0  0  0  0  0  0  0  0  0  0  0
   -1.4790    2.6283    1.6549 C   0  0  0  0  0  0  0  0  0  0  0  0
   -0.3326    2.2823    1.0472 N   0  0  0  0  0  0  0  0  0  0  0  0
    0.8370    3.1033    0.9195 C   0  0  0  0  0  0  0  0  0  0  0  0
    0.8108    3.9255   -0.3368 C   0  0  0  0  0  0  0  0  0  0  0  0
    0.7483    3.1158   -1.4513 F   0  0  0  0  0  0  0  0  0  0  0  0
   -0.2121    4.8552   -0.3214 F   0  0  0  0  0  0  0  0  0  0  0  0
   -0.4364    1.0121    0.5589 C   0  0  0  0  0  0  0  0  0  0  0  0
    0.5754    0.2582   -0.1599 C   0  0  0  0  0  0  0  0  0  0  0  0
    0.4420   -0.0703   -1.4758 C   0  0  0  0  0  0  0  0  0  0  0  0
    1.4582   -0.7972   -2.0790 C   0  0  0  0  0  0  0  0  0  0  0  0
    2.5920   -1.2039   -1.4218 C   0  0  0  0  0  0  0  0  0  0  0  0
    3.6798   -1.9015   -1.8037 N   0  0  0  0  0  0  0  0  0  0  0  0
    4.5054   -2.0222   -0.7489 C   0  0  0  0  0  0  0  0  0  0  0  0
    3.8846   -1.3731    0.2954 C   0  0  0  0  0  0  0  0  0  0  0  0
    2.7002   -0.8620   -0.1059 N   0  0  0  0  0  0  0  0  0  0  0  0
    1.7381   -0.1637    0.4988 C   0  0  0  0  0  0  0  0  0  0  0  0
   -2.4580   -1.6773    1.5915 C   0  0  0  0  0  0  0  0  0  0  0  0
   -3.0188   -2.9201    1.3484 C   0  0  0  0  0  0  0  0  0  0  0  0
   -3.6167   -2.6604   -1.9256 H   0  0  0  0  0  0  0  0  0  0  0  0
   -2.6279   -0.4469   -1.5105 H   0  0  0  0  0  0  0  0  0  0  0  0
   -1.7163    3.5828    2.1503 H   0  0  0  0  0  0  0  0  0  0  0  0
    1.7811    2.5335    0.9370 H   0  0  0  0  0  0  0  0  0  0  0  0
    0.8334    3.8227    1.7760 H   0  0  0  0  0  0  0  0  0  0  0  0
    1.7590    4.5057   -0.4250 H   0  0  0  0  0  0  0  0  0  0  0  0
   -0.4223    0.2255   -2.0400 H   0  0  0  0  0  0  0  0  0  0  0  0
    1.3341   -1.0448   -3.1115 H   0  0  0  0  0  0  0  0  0  0  0  0
    5.4788   -2.5347   -0.7231 H   0  0  0  0  0  0  0  0  0  0  0  0
    4.3063   -1.2973    1.2855 H   0  0  0  0  0  0  0  0  0  0  0  0
    1.8596    0.0938    1.5577 H   0  0  0  0  0  0  0  0  0  0  0  0
   -2.1302   -1.3984    2.5905 H   0  0  0  0  0  0  0  0  0  0  0  0
   -3.1475   -3.6500    2.1368 H   0  0  0  0  0  0  0  0  0  0  0  0
  1  2  1  0
  2  3  2  0
  3  4  1  0
  4  5  2  0
  5  6  1  0
  6  7  1  0
  7  8  2  0
  8  9  1  0
  9 10  1  0
 10 11  1  0
 11 12  1  0
 11 13  1  0
  9 14  1  0
 14 15  1  0
 15 16  1  0
 16 17  2  0
 17 18  1  0
 18 19  2  0
 19 20  1  0
 20 21  2  0
 21 22  1  0
 22 23  1  0
  5 24  1  0
 24 25  2  0
 25  2  1  0
 14  6  2  0
 23 15  2  0
 22 18  1  0
  3 26  1  0
  4 27  1  0
  8 28  1  0
 10 29  1  0
 10 30  1  0
 11 31  1  0
 16 32  1  0
 17 33  1  0
 20 34  1  0
 21 35  1  0
 23 36  1  0
 24 37  1  0
 25 38  1  0
M  END
$$$$
