
     RDKit          3D

 22 22  0  0  0  0  0  0  0  0999 V2000
   -4.1823   -0.2863   -0.0038 N   0  0  0  0  0  0  0  0  0  0  0  0
   -2.9286    0.2961    0.3930 C   0  0  0  0  0  0  0  0  0  0  0  0
   -2.6103    0.6605    1.6143 N   0  0  0  0  0  0  0  0  0  0  0  0
   -1.9309    0.5125   -0.5815 N   0  0  0  0  0  0  0  0  0  0  0  0
   -0.5598    0.2683   -0.3848 C   0  0  0  0  0  0  0  0  0  0  0  0
    0.0194   -0.2706    0.7402 C   0  0  0  0  0  0  0  0  0  0  0  0
    1.3708   -0.4914    0.8971 C   0  0  0  0  0  0  0  0  0  0  0  0
    2.2260   -0.1644   -0.1154 C   0  0  0  0  0  0  0  0  0  0  0  0
    1.7213    0.3738   -1.2595 C   0  0  0  0  0  0  0  0  0  0  0  0
    0.3732    0.5767   -1.3743 C   0  0  0  0  0  0  0  0  0  0  0  0
    3.6727   -0.3464   -0.0768 C   0  0  0  0  0  0  0  0  0  0  0  0
    4.4498   -0.8624    0.9402 O   0  0  0  0  0  0  0  0  0  0  0  0
    4.4602   -0.0355   -1.0324 O   0  0  0  0  0  0  0  0  0  0  0  0
   -4.2846   -1.3241   -0.0558 H   0  0  0  0  0  0  0  0  0  0  0  0
   -4.8651    0.4860   -0.1982 H   0  0  0  0  0  0  0  0  0  0  0  0
   -3.3794    0.4822    2.2970 H   0  0  0  0  0  0  0  0  0  0  0  0
   -2.2259    0.8826   -1.5345 H   0  0  0  0  0  0  0  0  0  0  0  0
   -0.6031   -0.5470    1.5604 H   0  0  0  0  0  0  0  0  0  0  0  0
    1.7783   -0.9161    1.7974 H   0  0  0  0  0  0  0  0  0  0  0  0
    2.3612    0.6529   -2.0991 H   0  0  0  0  0  0  0  0  0  0  0  0
   -0.0047    1.0129   -2.3102 H   0  0  0  0  0  0  0  0  0  0  0  0
    5.1417   -1.5646    0.7866 H   0  0  0  0  0  0  0  0  0  0  0  0
  1  2  1  0
  2  3  2  3
  2  4  1  0
  4  5  1  0
  5  6  2  0
  6  7  1  0
  7  8  2  0
  8  9  1  0
  9 10  2  0
  8 11  1  0
 11 12  1  0
 11 13  2  0
 10  5  1  0
  1 14  1  0
  1 15  1  0
  3 16  1  0
  4 17  1  0
  6 18  1  0
  7 19  1  0
  9 20  1  0
 10 21  1  0
 12 22  1  0
M  END
$$$$
