@<TRIPOS>MOLECULE
*****
 22 22 0 0 0
SMALL
GASTEIGER

@<TRIPOS>ATOM
      1 N          -4.1823   -0.2863   -0.0038 N.pl3   1  UNL1       -0.2889
      2 C          -2.9286    0.2961    0.3930 C.cat   1  UNL1        0.3810
      3 N          -2.6103    0.6605    1.6143 N.pl3   1  UNL1       -0.1295
      4 N          -1.9309    0.5125   -0.5815 N.pl3   1  UNL1       -0.2438
      5 C          -0.5598    0.2683   -0.3848 C.ar    1  UNL1        0.1000
      6 C           0.0194   -0.2706    0.7402 C.ar    1  UNL1       -0.0224
      7 C           1.3708   -0.4914    0.8971 C.ar    1  UNL1       -0.0445
      8 C           2.2260   -0.1644   -0.1154 C.ar    1  UNL1        0.0590
      9 C           1.7213    0.3738   -1.2595 C.ar    1  UNL1       -0.0445
     10 C           0.3732    0.5767   -1.3743 C.ar    1  UNL1       -0.0224
     11 C           3.6727   -0.3464   -0.0768 C.2     1  UNL1        0.3368
     12 O           4.4498   -0.8624    0.9402 O.3     1  UNL1       -0.4771
     13 O           4.4602   -0.0355   -1.0324 O.2     1  UNL1       -0.2451
     14 H          -4.2846   -1.3241   -0.0558 H       1  UNL1        0.2547
     15 H          -4.8651    0.4860   -0.1982 H       1  UNL1        0.2547
     16 H          -3.3794    0.4822    2.2970 H       1  UNL1        0.3062
     17 H          -2.2259    0.8826   -1.5345 H       1  UNL1        0.2648
     18 H          -0.6031   -0.5470    1.5604 H       1  UNL1        0.0652
     19 H           1.7783   -0.9161    1.7974 H       1  UNL1        0.0627
     20 H           2.3612    0.6529   -2.0991 H       1  UNL1        0.0627
     21 H          -0.0047    1.0129   -2.3102 H       1  UNL1        0.0652
     22 H           5.1417   -1.5646    0.7866 H       1  UNL1        0.2954
@<TRIPOS>BOND
     1     1     2    1
     2     2     3    2
     3     2     4    1
     4     4     5    1
     5     5     6   ar
     6     6     7   ar
     7     7     8   ar
     8     8     9   ar
     9     9    10   ar
    10     8    11    1
    11    11    12    1
    12    11    13    2
    13    10     5   ar
    14     1    14    1
    15     1    15    1
    16     3    16    1
    17     4    17    1
    18     6    18    1
    19     7    19    1
    20     9    20    1
    21    10    21    1
    22    12    22    1
