@<TRIPOS>MOLECULE
*****
 64 67 0 0 0
SMALL
GASTEIGER

@<TRIPOS>ATOM
      1 C          -9.1752   -3.9418   -0.5833 C.3     1  UNL1        0.0788
      2 O          -9.4026   -2.6608   -0.0849 O.3     1  UNL1       -0.4951
      3 C          -8.5607   -1.5953   -0.3232 C.ar    1  UNL1        0.1201
      4 C          -7.4076   -1.6839   -1.0770 C.ar    1  UNL1       -0.0196
      5 C          -6.5774   -0.5941   -1.3035 C.ar    1  UNL1       -0.0534
      6 C          -6.9119    0.6217   -0.7590 C.ar    1  UNL1       -0.0258
      7 C          -6.1509    1.8615   -0.9351 C.3     1  UNL1        0.0685
      8 N          -5.0779    2.0453   -0.0037 N.ar    1  UNL1       -0.2448
      9 N          -5.1154    2.5784    1.1907 N.ar    1  UNL1       -0.1758
     10 C          -3.9084    2.5851    1.7549 C.ar    1  UNL1        0.0725
     11 C          -3.0035    2.0065    0.8505 C.ar    1  UNL1        0.0933
     12 N          -1.6289    1.8736    1.1161 N.am    1  UNL1       -0.2775
     13 C          -0.6661    1.4367    0.2066 C.2     1  UNL1        0.2487
     14 O          -0.9222    1.0975   -0.9641 O.2     1  UNL1       -0.2698
     15 C           0.7675    1.3443    0.5654 C.ar    1  UNL1        0.0417
     16 C           1.5200    0.2207    0.3755 C.ar    1  UNL1       -0.0281
     17 C           2.8752    0.1633    0.6856 C.ar    1  UNL1        0.0355
     18 N           3.6328   -1.0168    0.5014 N.am    1  UNL1       -0.2692
     19 C           4.9861   -1.0474    0.1320 C.2     1  UNL1        0.3081
     20 O           5.5598    0.0614   -0.0795 O.2     1  UNL1       -0.2522
     21 N           5.8010   -2.1921   -0.0351 N.am    1  UNL1       -0.2692
     22 C           7.1566   -2.0554   -0.4456 C.ar    1  UNL1        0.0354
     23 C           7.4821   -2.1607   -1.7853 C.ar    1  UNL1       -0.0390
     24 C           8.7978   -2.0011   -2.1699 C.ar    1  UNL1       -0.0411
     25 C           9.7906   -1.7388   -1.2392 C.ar    1  UNL1        0.0527
     26 CL         11.4681   -1.5332   -1.7235 Cl      1  UNL1       -0.0830
     27 C           9.4764   -1.6318    0.0993 C.ar    1  UNL1        0.0748
     28 C          10.5602   -1.3407    1.0890 C.3     1  UNL1        0.4188
     29 F          11.4943   -2.3327    1.0398 F       1  UNL1       -0.1658
     30 F          11.1490   -0.1671    0.6811 F       1  UNL1       -0.1658
     31 F          10.0422   -1.1501    2.3523 F       1  UNL1       -0.1658
     32 C           8.1565   -1.7946    0.4643 C.ar    1  UNL1       -0.0274
     33 C           3.4248    1.3128    1.2031 C.ar    1  UNL1       -0.0401
     34 C           2.7110    2.4817    1.4189 C.ar    1  UNL1       -0.0564
     35 C           1.3595    2.4733    1.0864 C.ar    1  UNL1       -0.0382
     36 C           0.5591    3.6928    1.2927 C.3     1  UNL1       -0.0390
     37 C          -3.7780    1.6850   -0.2260 C.ar    1  UNL1        0.1362
     38 N          -3.4051    1.0605   -1.4292 N.pl3   1  UNL1       -0.3419
     39 C          -8.0862    0.7106    0.0092 C.ar    1  UNL1       -0.0534
     40 C          -8.8934   -0.3716    0.2232 C.ar    1  UNL1       -0.0196
     41 H          -8.5277   -4.4828    0.1459 H       1  UNL1        0.0660
     42 H          -8.7047   -3.8906   -1.5733 H       1  UNL1        0.0660
     43 H         -10.1894   -4.4385   -0.6405 H       1  UNL1        0.0660
     44 H          -7.1230   -2.6186   -1.5111 H       1  UNL1        0.0654
     45 H          -5.6697   -0.6694   -1.8987 H       1  UNL1        0.0622
     46 H          -5.7674    1.9668   -1.9944 H       1  UNL1        0.0559
     47 H          -6.8212    2.7681   -0.8304 H       1  UNL1        0.0559
     48 H          -3.6243    2.9555    2.7260 H       1  UNL1        0.0867
     49 H          -1.2667    2.1189    2.1003 H       1  UNL1        0.1553
     50 H           1.0728   -0.6648   -0.0257 H       1  UNL1        0.0644
     51 H           3.1661   -1.9636    0.6451 H       1  UNL1        0.1564
     52 H           5.3572   -3.1271    0.1579 H       1  UNL1        0.1564
     53 H           6.7614   -2.3637   -2.5645 H       1  UNL1        0.0636
     54 H           9.0619   -2.0828   -3.2057 H       1  UNL1        0.0633
     55 H           7.9529   -1.6994    1.5417 H       1  UNL1        0.0642
     56 H           4.4859    1.2958    1.4680 H       1  UNL1        0.0636
     57 H           3.1830    3.3633    1.8297 H       1  UNL1        0.0621
     58 H           1.2096    4.5836    1.0346 H       1  UNL1        0.0278
     59 H           0.3496    3.8519    2.3888 H       1  UNL1        0.0278
     60 H          -0.3228    3.7828    0.6582 H       1  UNL1        0.0278
     61 H          -3.3272    0.0136   -1.4747 H       1  UNL1        0.1438
     62 H          -3.2059    1.6144   -2.3015 H       1  UNL1        0.1438
     63 H          -8.3433    1.6791    0.4377 H       1  UNL1        0.0622
     64 H          -9.8058   -0.2953    0.8203 H       1  UNL1        0.0654
@<TRIPOS>BOND
     1     1     2    1
     2     2     3    1
     3     3     4   ar
     4     4     5   ar
     5     5     6   ar
     6     6     7    1
     7     7     8    1
     8     8     9   ar
     9     9    10   ar
    10    10    11   ar
    11    11    12    1
    12    12    13   am
    13    13    14    2
    14    13    15    1
    15    15    16   ar
    16    16    17   ar
    17    17    18    1
    18    18    19   am
    19    19    20    2
    20    19    21   am
    21    21    22    1
    22    22    23   ar
    23    23    24   ar
    24    24    25   ar
    25    25    26    1
    26    25    27   ar
    27    27    28    1
    28    28    29    1
    29    28    30    1
    30    28    31    1
    31    27    32   ar
    32    17    33   ar
    33    33    34   ar
    34    34    35   ar
    35    35    36    1
    36    11    37   ar
    37    37    38    1
    38     6    39   ar
    39    39    40   ar
    40    40     3   ar
    41    37     8   ar
    42    35    15   ar
    43    32    22   ar
    44     1    41    1
    45     1    42    1
    46     1    43    1
    47     4    44    1
    48     5    45    1
    49     7    46    1
    50     7    47    1
    51    10    48    1
    52    12    49    1
    53    16    50    1
    54    18    51    1
    55    21    52    1
    56    23    53    1
    57    24    54    1
    58    32    55    1
    59    33    56    1
    60    34    57    1
    61    36    58    1
    62    36    59    1
    63    36    60    1
    64    38    61    1
    65    38    62    1
    66    39    63    1
    67    40    64    1
