@<TRIPOS>MOLECULE
*****
 57 60 0 0 0
SMALL
GASTEIGER

@<TRIPOS>ATOM
      1 C           4.8109    3.2593    1.2145 C.3     1  UNL1        0.0121
      2 C           3.9398    2.2536    0.5203 C.2     1  UNL1        0.2099
      3 O           3.3312    1.4537    1.2486 O.2     1  UNL1       -0.2761
      4 N           3.8175    2.2169   -0.8822 N.am    1  UNL1       -0.3152
      5 C           3.0416    1.3017   -1.6637 C.3     1  UNL1        0.0156
      6 C           3.4406   -0.1255   -1.6683 C.3     1  UNL1       -0.0114
      7 C           3.4600   -0.8798   -0.4199 C.ar    1  UNL1       -0.0351
      8 C           4.6891   -1.1177    0.2407 C.ar    1  UNL1       -0.0578
      9 C           4.7697   -1.8011    1.4172 C.ar    1  UNL1       -0.0615
     10 C           3.6064   -2.2653    1.9612 C.ar    1  UNL1       -0.0611
     11 C           2.3768   -2.0389    1.3169 C.ar    1  UNL1       -0.0507
     12 C           2.2783   -1.3537    0.1322 C.ar    1  UNL1        0.0243
     13 C           0.9830   -1.2181   -0.5545 C.ar    1  UNL1        0.1816
     14 O           0.8541   -0.8494   -1.8262 O.2     1  UNL1       -0.3532
     15 N          -0.3655   -0.7985   -2.2041 N.ar    1  UNL1       -0.0811
     16 C          -1.1903   -1.1443   -1.1698 C.ar    1  UNL1        0.1055
     17 C          -2.6510   -1.2143   -1.1781 C.3     1  UNL1        0.0511
     18 C          -3.1689   -2.6095   -1.4726 C.3     1  UNL1        0.0073
     19 N          -4.5947   -2.6209   -1.3773 N.3     1  UNL1       -0.3151
     20 C          -5.2346   -1.3539   -1.5331 C.3     1  UNL1       -0.0011
     21 C          -4.7929   -0.3003   -0.5463 C.3     1  UNL1       -0.0066
     22 C          -3.3797   -0.6529   -0.0201 C.3     1  UNL1        0.1016
     23 O          -3.6152   -1.5624    1.0156 O.3     1  UNL1       -0.3832
     24 C          -2.8231    0.5894    0.5291 C.ar    1  UNL1       -0.0125
     25 C          -2.9741    0.9337    1.8628 C.ar    1  UNL1       -0.0529
     26 C          -2.4634    2.0930    2.3806 C.ar    1  UNL1       -0.0232
     27 C          -1.7701    2.9779    1.5924 C.ar    1  UNL1        0.1584
     28 F          -1.2567    4.1301    2.0860 F       1  UNL1       -0.2025
     29 C          -1.6021    2.6671    0.2643 C.ar    1  UNL1        0.1587
     30 F          -0.9147    3.5399   -0.5269 F       1  UNL1       -0.2025
     31 C          -2.1267    1.4828   -0.2536 C.ar    1  UNL1       -0.0177
     32 C          -0.3012   -1.4080   -0.1246 C.ar    1  UNL1        0.0880
     33 BR         -0.8367   -1.9310    1.6290 Br      1  UNL1       -0.0444
     34 H           4.3003    3.5564    2.1708 H       1  UNL1        0.0322
     35 H           5.8070    2.8571    1.4376 H       1  UNL1        0.0322
     36 H           4.9193    4.1877    0.6151 H       1  UNL1        0.0322
     37 H           4.3903    2.9821   -1.3805 H       1  UNL1        0.1487
     38 H           1.9479    1.4637   -1.3947 H       1  UNL1        0.0465
     39 H           3.0713    1.6473   -2.7321 H       1  UNL1        0.0465
     40 H           4.5432   -0.1034   -2.0244 H       1  UNL1        0.0328
     41 H           2.9792   -0.7001   -2.5172 H       1  UNL1        0.0328
     42 H           5.6052   -0.7308   -0.2234 H       1  UNL1        0.0620
     43 H           5.7470   -1.9581    1.8882 H       1  UNL1        0.0618
     44 H           3.6366   -2.8091    2.8922 H       1  UNL1        0.0618
     45 H           1.4905   -2.4403    1.7855 H       1  UNL1        0.0625
     46 H          -2.9818   -0.6089   -2.0857 H       1  UNL1        0.0409
     47 H          -2.8727   -2.9303   -2.4893 H       1  UNL1        0.0431
     48 H          -2.7705   -3.3543   -0.7541 H       1  UNL1        0.0431
     49 H          -4.9997   -3.2542   -0.6821 H       1  UNL1        0.1220
     50 H          -5.1589   -0.9950   -2.5863 H       1  UNL1        0.0425
     51 H          -6.3259   -1.5144   -1.3586 H       1  UNL1        0.0425
     52 H          -4.6773    0.6454   -1.1142 H       1  UNL1        0.0309
     53 H          -5.4547   -0.1755    0.3094 H       1  UNL1        0.0309
     54 H          -4.4390   -1.2742    1.4815 H       1  UNL1        0.2106
     55 H          -3.5190    0.2395    2.4860 H       1  UNL1        0.0622
     56 H          -2.5817    2.3625    3.4252 H       1  UNL1        0.0647
     57 H          -1.9938    1.2531   -1.2867 H       1  UNL1        0.0651
@<TRIPOS>BOND
     1     1     2    1
     2     2     3    2
     3     2     4   am
     4     4     5    1
     5     5     6    1
     6     6     7    1
     7     7     8   ar
     8     8     9   ar
     9     9    10   ar
    10    10    11   ar
    11    11    12   ar
    12    12    13    1
    13    13    14   ar
    14    14    15   ar
    15    15    16   ar
    16    16    17    1
    17    17    18    1
    18    18    19    1
    19    19    20    1
    20    20    21    1
    21    21    22    1
    22    22    23    1
    23    22    24    1
    24    24    25   ar
    25    25    26   ar
    26    26    27   ar
    27    27    28    1
    28    27    29   ar
    29    29    30    1
    30    29    31   ar
    31    16    32   ar
    32    32    33    1
    33    12     7   ar
    34    32    13   ar
    35    22    17    1
    36    31    24   ar
    37     1    34    1
    38     1    35    1
    39     1    36    1
    40     4    37    1
    41     5    38    1
    42     5    39    1
    43     6    40    1
    44     6    41    1
    45     8    42    1
    46     9    43    1
    47    10    44    1
    48    11    45    1
    49    17    46    1
    50    18    47    1
    51    18    48    1
    52    19    49    1
    53    20    50    1
    54    20    51    1
    55    21    52    1
    56    21    53    1
    57    23    54    1
    58    25    55    1
    59    26    56    1
    60    31    57    1
