
     RDKit          3D

 26 25  0  0  0  0  0  0  0  0999 V2000
   -2.4453   -0.5855    1.4222 C   0  0  0  0  0  0  0  0  0  0  0  0
   -2.9692    0.2856    0.3322 C   0  0  0  0  0  0  0  0  0  0  0  0
   -4.3282    0.8838    0.2073 C   0  0  0  0  0  0  0  0  0  0  0  0
   -2.1301    0.5739   -0.6603 C   0  0  0  0  0  0  0  0  0  0  0  0
   -0.7204    0.1046   -0.7766 C   0  0  0  0  0  0  0  0  0  0  0  0
    0.1838    1.1580   -0.8186 O   0  0  0  0  0  0  0  0  0  0  0  0
    1.7346    0.4965   -0.9505 P   0  0  2  0  0  5  0  0  0  0  0  0
    2.7920    1.7994   -1.2107 O   0  0  0  0  0  0  0  0  0  0  0  0
    1.8679   -0.4748   -2.0841 O   0  0  0  0  0  0  0  0  0  0  0  0
    2.1213   -0.3220    0.4782 O   0  0  0  0  0  0  0  0  0  0  0  0
    3.7023   -0.9170    0.2877 P   0  0  0  0  0  0  0  0  0  0  0  0
    4.7389    0.4272    0.4902 O   0  0  0  0  0  0  0  0  0  0  0  0
    4.0098   -2.0477    1.4924 O   0  0  0  0  0  0  0  0  0  0  0  0
    3.8517   -1.5125   -1.0832 O   0  0  0  0  0  0  0  0  0  0  0  0
   -2.0982   -1.5410    0.9524 H   0  0  0  0  0  0  0  0  0  0  0  0
   -1.5620   -0.1406    1.9465 H   0  0  0  0  0  0  0  0  0  0  0  0
   -3.2666   -0.8000    2.1379 H   0  0  0  0  0  0  0  0  0  0  0  0
   -4.2887    1.9712    0.4630 H   0  0  0  0  0  0  0  0  0  0  0  0
   -4.7031    0.7586   -0.8259 H   0  0  0  0  0  0  0  0  0  0  0  0
   -4.9879    0.3477    0.9227 H   0  0  0  0  0  0  0  0  0  0  0  0
   -2.3559    1.1887   -1.5193 H   0  0  0  0  0  0  0  0  0  0  0  0
   -0.6663   -0.5557   -1.6529 H   0  0  0  0  0  0  0  0  0  0  0  0
   -0.4736   -0.5142    0.1169 H   0  0  0  0  0  0  0  0  0  0  0  0
    3.0284    1.8421   -2.1647 H   0  0  0  0  0  0  0  0  0  0  0  0
    4.5016    0.7947    1.3963 H   0  0  0  0  0  0  0  0  0  0  0  0
    4.4633   -2.8144    1.1008 H   0  0  0  0  0  0  0  0  0  0  0  0
  1  2  1  0
  2  3  1  0
  2  4  2  3
  4  5  1  0
  5  6  1  0
  7  6  1  1
  7  8  1  0
  7  9  2  0
  7 10  1  0
 10 11  1  0
 11 12  1  0
 11 13  1  0
 11 14  2  0
  1 15  1  0
  1 16  1  0
  1 17  1  0
  3 18  1  0
  3 19  1  0
  3 20  1  0
  4 21  1  0
  5 22  1  0
  5 23  1  0
  8 24  1  0
 12 25  1  0
 13 26  1  0
M  END
$$$$
