
     RDKit          3D

 49 51  0  0  0  0  0  0  0  0999 V2000
   -3.4260    2.4571    0.7674 C   0  0  0  0  0  0  0  0  0  0  0  0
   -3.8859    1.1262    0.2013 C   0  0  0  0  0  0  0  0  0  0  0  0
   -5.4033    1.1325    0.0974 C   0  0  0  0  0  0  0  0  0  0  0  0
   -3.5030    0.0014    1.0580 C   0  0  0  0  0  0  0  0  0  0  0  0
   -4.2092   -0.1135    2.3398 N   0  0  0  0  0  0  0  0  0  0  0  0
   -2.6327   -0.8318    0.7526 N   0  0  0  0  0  0  0  0  0  0  0  0
   -1.7776   -1.0347   -0.3530 C   0  0  2  0  0  0  0  0  0  0  0  0
   -2.3306   -2.1243   -1.2932 C   0  0  0  0  0  0  0  0  0  0  0  0
   -0.4969   -1.5689    0.1742 C   0  0  0  0  0  0  0  0  0  0  0  0
    0.7317   -0.9526    0.0073 C   0  0  0  0  0  0  0  0  0  0  0  0
    1.9009   -1.4740    0.5030 C   0  0  0  0  0  0  0  0  0  0  0  0
    3.1896   -0.8850    0.3626 N   0  0  0  0  0  0  0  0  0  0  0  0
    3.5103    0.3143   -0.2915 C   0  0  0  0  0  0  0  0  0  0  0  0
    2.6173    0.9955   -0.8346 O   0  0  0  0  0  0  0  0  0  0  0  0
    4.8879    0.8226   -0.3704 C   0  0  0  0  0  0  0  0  0  0  0  0
    5.2076    1.9838   -1.0022 C   0  0  0  0  0  0  0  0  0  0  0  0
    6.5177    2.4121   -1.0449 C   0  0  0  0  0  0  0  0  0  0  0  0
    7.5279    1.6827   -0.4545 C   0  0  0  0  0  0  0  0  0  0  0  0
    9.2092    2.2162   -0.4998 Cl  0  0  0  0  0  0  0  0  0  0  0  0
    7.1662    0.5106    0.1770 C   0  0  0  0  0  0  0  0  0  0  0  0
    5.8765    0.1124    0.2052 N   0  0  0  0  0  0  0  0  0  0  0  0
    1.7763   -2.6754    1.1926 C   0  0  0  0  0  0  0  0  0  0  0  0
    0.5922   -3.3191    1.3826 C   0  0  0  0  0  0  0  0  0  0  0  0
    0.5402   -4.5056    2.0750 F   0  0  0  0  0  0  0  0  0  0  0  0
   -0.5533   -2.7567    0.8666 C   0  0  0  0  0  0  0  0  0  0  0  0
   -1.7447   -3.4140    1.0635 F   0  0  0  0  0  0  0  0  0  0  0  0
   -1.6069    0.1974   -1.2168 C   0  0  0  0  0  0  0  0  0  0  0  0
   -3.2345    0.9156   -1.4300 S   0  0  0  0  0  6  0  0  0  0  0  0
   -3.0888    2.2327   -2.1407 O   0  0  0  0  0  0  0  0  0  0  0  0
   -4.1430    0.0539   -2.2200 O   0  0  0  0  0  0  0  0  0  0  0  0
   -2.6616    2.2955    1.5712 H   0  0  0  0  0  0  0  0  0  0  0  0
   -4.2756    3.0368    1.1469 H   0  0  0  0  0  0  0  0  0  0  0  0
   -2.9154    3.0696   -0.0098 H   0  0  0  0  0  0  0  0  0  0  0  0
   -5.7414    2.1884   -0.0388 H   0  0  0  0  0  0  0  0  0  0  0  0
   -5.8619    0.7823    1.0530 H   0  0  0  0  0  0  0  0  0  0  0  0
   -5.7838    0.5097   -0.7133 H   0  0  0  0  0  0  0  0  0  0  0  0
   -4.1185    0.6232    3.0651 H   0  0  0  0  0  0  0  0  0  0  0  0
   -4.7889   -0.9727    2.4494 H   0  0  0  0  0  0  0  0  0  0  0  0
   -3.2739   -2.5396   -0.8595 H   0  0  0  0  0  0  0  0  0  0  0  0
   -1.5903   -2.9148   -1.4847 H   0  0  0  0  0  0  0  0  0  0  0  0
   -2.6024   -1.6966   -2.2762 H   0  0  0  0  0  0  0  0  0  0  0  0
    0.7608   -0.0136   -0.5472 H   0  0  0  0  0  0  0  0  0  0  0  0
    4.0349   -1.3861    0.7923 H   0  0  0  0  0  0  0  0  0  0  0  0
    4.4061    2.5495   -1.4630 H   0  0  0  0  0  0  0  0  0  0  0  0
    6.7837    3.3283   -1.5412 H   0  0  0  0  0  0  0  0  0  0  0  0
    7.9296   -0.0911    0.6528 H   0  0  0  0  0  0  0  0  0  0  0  0
    2.6779   -3.1038    1.5904 H   0  0  0  0  0  0  0  0  0  0  0  0
   -0.9383    0.9540   -0.8139 H   0  0  0  0  0  0  0  0  0  0  0  0
   -1.2561   -0.1301   -2.2112 H   0  0  0  0  0  0  0  0  0  0  0  0
  1  2  1  0
  2  3  1  0
  2  4  1  0
  4  5  1  0
  4  6  2  0
  6  7  1  0
  7  8  1  6
  7  9  1  0
  9 10  2  0
 10 11  1  0
 11 12  1  0
 12 13  1  0
 13 14  2  0
 13 15  1  0
 15 16  2  0
 16 17  1  0
 17 18  2  0
 18 19  1  0
 18 20  1  0
 20 21  2  0
 11 22  2  0
 22 23  1  0
 23 24  1  0
 23 25  2  0
 25 26  1  0
  7 27  1  0
 27 28  1  0
 28 29  2  0
 28 30  2  0
 28  2  1  0
 25  9  1  0
 21 15  1  0
  1 31  1  0
  1 32  1  0
  1 33  1  0
  3 34  1  0
  3 35  1  0
  3 36  1  0
  5 37  1  0
  5 38  1  0
  8 39  1  0
  8 40  1  0
  8 41  1  0
 10 42  1  0
 12 43  1  0
 16 44  1  0
 17 45  1  0
 20 46  1  0
 22 47  1  0
 27 48  1  0
 27 49  1  0
M  END
$$$$
