@<TRIPOS>MOLECULE
*****
 49 51 0 0 0
SMALL
GASTEIGER

@<TRIPOS>ATOM
      1 C          -3.4260    2.4571    0.7674 C.3     1  UNL1       -0.0288
      2 C          -3.8859    1.1262    0.2013 C.3     1  UNL1        0.1831
      3 C          -5.4033    1.1325    0.0974 C.3     1  UNL1       -0.0288
      4 C          -3.5030    0.0014    1.0580 C.2     1  UNL1        0.3067
      5 N          -4.2092   -0.1135    2.3398 N.pl3   1  UNL1       -0.2488
      6 N          -2.6327   -0.8318    0.7526 N.2     1  UNL1       -0.0727
      7 C          -1.7776   -1.0347   -0.3530 C.3     1  UNL1        0.1960
      8 C          -2.3306   -2.1243   -1.2932 C.3     1  UNL1       -0.0112
      9 C          -0.4969   -1.5689    0.1742 C.ar    1  UNL1        0.0449
     10 C           0.7317   -0.9526    0.0073 C.ar    1  UNL1       -0.0299
     11 C           1.9009   -1.4740    0.5030 C.ar    1  UNL1        0.0370
     12 N           3.1896   -0.8850    0.3626 N.am    1  UNL1       -0.2801
     13 C           3.5103    0.3143   -0.2915 C.2     1  UNL1        0.2666
     14 O           2.6173    0.9955   -0.8346 O.2     1  UNL1       -0.2682
     15 C           4.8879    0.8226   -0.3704 C.ar    1  UNL1        0.1257
     16 C           5.2076    1.9838   -1.0022 C.ar    1  UNL1       -0.0298
     17 C           6.5177    2.4121   -1.0449 C.ar    1  UNL1       -0.0397
     18 C           7.5279    1.6827   -0.4545 C.ar    1  UNL1        0.0591
     19 CL          9.2092    2.2162   -0.4998 Cl      1  UNL1       -0.0820
     20 C           7.1662    0.5106    0.1770 C.ar    1  UNL1        0.0467
     21 N           5.8765    0.1124    0.2052 N.ar    1  UNL1       -0.2489
     22 C           1.7763   -2.6754    1.1926 C.ar    1  UNL1       -0.0023
     23 C           0.5922   -3.3191    1.3826 C.ar    1  UNL1        0.1606
     24 F           0.5402   -4.5056    2.0750 F       1  UNL1       -0.2024
     25 C          -0.5533   -2.7567    0.8666 C.ar    1  UNL1        0.1661
     26 F          -1.7447   -3.4140    1.0635 F       1  UNL1       -0.2020
     27 C          -1.6069    0.1974   -1.2168 C.3     1  UNL1        0.1183
     28 S          -3.2345    0.9156   -1.4300 S.O2    1  UNL1       -0.0101
     29 O          -3.0888    2.2327   -2.1407 O.2     1  UNL1       -0.1731
     30 O          -4.1430    0.0539   -2.2200 O.2     1  UNL1       -0.1731
     31 H          -2.6616    2.2955    1.5712 H       1  UNL1        0.0256
     32 H          -4.2756    3.0368    1.1469 H       1  UNL1        0.0256
     33 H          -2.9154    3.0696   -0.0098 H       1  UNL1        0.0256
     34 H          -5.7414    2.1884   -0.0388 H       1  UNL1        0.0256
     35 H          -5.8619    0.7823    1.0530 H       1  UNL1        0.0256
     36 H          -5.7838    0.5097   -0.7133 H       1  UNL1        0.0256
     37 H          -4.1185    0.6232    3.0651 H       1  UNL1        0.2881
     38 H          -4.7889   -0.9727    2.4494 H       1  UNL1        0.2881
     39 H          -3.2739   -2.5396   -0.8595 H       1  UNL1        0.0279
     40 H          -1.5903   -2.9148   -1.4847 H       1  UNL1        0.0279
     41 H          -2.6024   -1.6966   -2.2762 H       1  UNL1        0.0279
     42 H           0.7608   -0.0136   -0.5472 H       1  UNL1        0.0641
     43 H           4.0349   -1.3861    0.7923 H       1  UNL1        0.1552
     44 H           4.4061    2.5495   -1.4630 H       1  UNL1        0.0641
     45 H           6.7837    3.3283   -1.5412 H       1  UNL1        0.0633
     46 H           7.9296   -0.0911    0.6528 H       1  UNL1        0.0844
     47 H           2.6779   -3.1038    1.5904 H       1  UNL1        0.0666
     48 H          -0.9383    0.9540   -0.8139 H       1  UNL1        0.0550
     49 H          -1.2561   -0.1301   -2.2112 H       1  UNL1        0.0550
@<TRIPOS>BOND
     1     1     2    1
     2     2     3    1
     3     2     4    1
     4     4     5    1
     5     4     6    2
     6     6     7    1
     7     7     8    1
     8     7     9    1
     9     9    10   ar
    10    10    11   ar
    11    11    12    1
    12    12    13   am
    13    13    14    2
    14    13    15    1
    15    15    16   ar
    16    16    17   ar
    17    17    18   ar
    18    18    19    1
    19    18    20   ar
    20    20    21   ar
    21    11    22   ar
    22    22    23   ar
    23    23    24    1
    24    23    25   ar
    25    25    26    1
    26     7    27    1
    27    27    28    1
    28    28    29    2
    29    28    30    2
    30    28     2    1
    31    25     9   ar
    32    21    15   ar
    33     1    31    1
    34     1    32    1
    35     1    33    1
    36     3    34    1
    37     3    35    1
    38     3    36    1
    39     5    37    1
    40     5    38    1
    41     8    39    1
    42     8    40    1
    43     8    41    1
    44    10    42    1
    45    12    43    1
    46    16    44    1
    47    17    45    1
    48    20    46    1
    49    22    47    1
    50    27    48    1
    51    27    49    1
