@<TRIPOS>MOLECULE
*****
 57 61 0 0 0
SMALL
GASTEIGER

@<TRIPOS>ATOM
      1 C          -0.9466   -0.2336   -2.9508 C.3     1  UNL1       -0.0372
      2 C          -0.6074   -1.3762   -1.9922 C.3     1  UNL1        0.0717
      3 C          -1.6879   -1.6196   -0.9996 C.3     1  UNL1        0.0414
      4 N          -1.3696   -1.3462    0.3527 N.am    1  UNL1       -0.2895
      5 C          -2.3940   -1.2105    1.3197 C.2     1  UNL1        0.2492
      6 O          -2.1326   -0.9726    2.5442 O.2     1  UNL1       -0.2699
      7 C          -3.7910   -1.3443    0.9188 C.ar    1  UNL1        0.0653
      8 C          -4.4134   -2.5856    0.8949 C.ar    1  UNL1       -0.0292
      9 C          -5.7271   -2.6774    0.5020 C.ar    1  UNL1        0.0418
     10 CL         -6.5364   -4.2215    0.4612 Cl      1  UNL1       -0.0835
     11 C          -6.4157   -1.5562    0.1379 C.ar    1  UNL1       -0.0413
     12 C          -5.7946   -0.3413    0.1653 C.ar    1  UNL1       -0.0324
     13 C          -4.4701   -0.2085    0.5561 C.ar    1  UNL1        0.0983
     14 N          -3.8346    1.0599    0.5915 N.ar    1  UNL1       -0.1496
     15 N          -4.1631    2.0655    1.4176 N.ar    1  UNL1       -0.1556
     16 C          -3.3806    3.1274    1.2083 C.ar    1  UNL1        0.0697
     17 C          -2.5156    2.7657    0.1958 C.ar    1  UNL1        0.0697
     18 N          -2.8415    1.5055   -0.1332 N.ar    1  UNL1       -0.1556
     19 C           0.0029   -1.1999    0.7728 C.3     1  UNL1        0.0538
     20 C           0.3830    0.2660    0.7380 C.3     1  UNL1       -0.0041
     21 C           1.7903    0.4764    1.1640 C.ar    1  UNL1       -0.0097
     22 C           2.8049    0.7439    0.2642 C.ar    1  UNL1       -0.0451
     23 C           4.1036    0.9413    0.6214 C.ar    1  UNL1        0.0195
     24 C           5.1268    1.2210   -0.3982 C.ar    1  UNL1        0.1597
     25 N           6.4118    1.4161   -0.0599 N.ar    1  UNL1       -0.2357
     26 C           7.3608    1.6732   -0.9872 C.ar    1  UNL1        0.0314
     27 C           7.0355    1.7440   -2.3255 C.ar    1  UNL1       -0.0254
     28 C           5.7103    1.5420   -2.6661 C.ar    1  UNL1        0.0314
     29 N           4.8133    1.2908   -1.7036 N.ar    1  UNL1       -0.2357
     30 C           4.4284    0.8707    1.9586 C.ar    1  UNL1       -0.0483
     31 C           3.4264    0.6020    2.8928 C.ar    1  UNL1       -0.0255
     32 C           2.1134    0.4050    2.5050 C.ar    1  UNL1        0.1267
     33 F           1.2081    0.1497    3.4789 F       1  UNL1       -0.2052
     34 C           0.8380   -1.8928   -0.2851 C.3     1  UNL1        0.0669
     35 O           0.6400   -1.1699   -1.4615 O.3     1  UNL1       -0.3734
     36 H          -0.9283    0.7316   -2.3941 H       1  UNL1        0.0255
     37 H          -0.2342   -0.2320   -3.8013 H       1  UNL1        0.0255
     38 H          -1.9733   -0.3455   -3.3544 H       1  UNL1        0.0255
     39 H          -0.5346   -2.2826   -2.6533 H       1  UNL1        0.0609
     40 H          -2.5671   -1.0019   -1.3012 H       1  UNL1        0.0490
     41 H          -2.0806   -2.6795   -1.0791 H       1  UNL1        0.0490
     42 H          -3.8237   -3.4472    1.1931 H       1  UNL1        0.0640
     43 H          -7.4484   -1.6010   -0.1748 H       1  UNL1        0.0633
     44 H          -6.3213    0.5534   -0.1183 H       1  UNL1        0.0640
     45 H          -3.3550    4.1007    1.6789 H       1  UNL1        0.0864
     46 H          -1.7403    3.4018   -0.2232 H       1  UNL1        0.0864
     47 H           0.1932   -1.5890    1.7827 H       1  UNL1        0.0526
     48 H           0.2007    0.7027   -0.2727 H       1  UNL1        0.0333
     49 H          -0.2545    0.8408    1.4420 H       1  UNL1        0.0333
     50 H           2.5358    0.7983   -0.8001 H       1  UNL1        0.0628
     51 H           8.3925    1.8304   -0.7215 H       1  UNL1        0.0831
     52 H           7.7617    1.9471   -3.1008 H       1  UNL1        0.0648
     53 H           5.4500    1.5972   -3.7192 H       1  UNL1        0.0831
     54 H           5.4556    1.0244    2.2649 H       1  UNL1        0.0625
     55 H           3.6869    0.5476    3.9428 H       1  UNL1        0.0646
     56 H           1.9161   -1.8759   -0.0393 H       1  UNL1        0.0578
     57 H           0.4929   -2.9317   -0.4666 H       1  UNL1        0.0578
@<TRIPOS>BOND
     1     1     2    1
     2     2     3    1
     3     3     4    1
     4     4     5   am
     5     5     6    2
     6     5     7    1
     7     7     8   ar
     8     8     9   ar
     9     9    10    1
    10     9    11   ar
    11    11    12   ar
    12    12    13   ar
    13    13    14    1
    14    14    15   ar
    15    15    16   ar
    16    16    17   ar
    17    17    18   ar
    18     4    19    1
    19    19    20    1
    20    20    21    1
    21    21    22   ar
    22    22    23   ar
    23    23    24    1
    24    24    25   ar
    25    25    26   ar
    26    26    27   ar
    27    27    28   ar
    28    28    29   ar
    29    23    30   ar
    30    30    31   ar
    31    31    32   ar
    32    32    33    1
    33    19    34    1
    34    34    35    1
    35    35     2    1
    36    13     7   ar
    37    18    14   ar
    38    32    21   ar
    39    29    24   ar
    40     1    36    1
    41     1    37    1
    42     1    38    1
    43     2    39    1
    44     3    40    1
    45     3    41    1
    46     8    42    1
    47    11    43    1
    48    12    44    1
    49    16    45    1
    50    17    46    1
    51    19    47    1
    52    20    48    1
    53    20    49    1
    54    22    50    1
    55    26    51    1
    56    27    52    1
    57    28    53    1
    58    30    54    1
    59    31    55    1
    60    34    56    1
    61    34    57    1
