@<TRIPOS>MOLECULE
*****
 33 35 0 0 0
SMALL
GASTEIGER

@<TRIPOS>ATOM
      1 O          -7.3574    1.6347   -1.5802 O.co2   1  UNL1       -0.5760
      2 N          -6.7612    0.5645   -0.9474 N.pl3   1  UNL1        0.0796
      3 O          -7.6396   -0.2836   -0.6902 O.2     1  UNL1        0.0414
      4 C          -5.4042    0.3276   -0.5858 C.ar    1  UNL1        0.2732
      5 C          -4.4684    1.3128   -0.9000 C.ar    1  UNL1        0.0163
      6 C          -3.1224    1.1313   -0.5676 C.ar    1  UNL1       -0.0447
      7 C          -2.7455   -0.0323    0.0714 C.ar    1  UNL1        0.0177
      8 C          -3.7096   -0.9762    0.3601 C.ar    1  UNL1       -0.0447
      9 C          -5.0510   -0.8497    0.0556 C.ar    1  UNL1        0.0163
     10 C          -1.3492   -0.2527    0.4320 C.ar    1  UNL1        0.1357
     11 C          -0.8560   -1.3724    1.0704 C.ar    1  UNL1       -0.0152
     12 C           0.5176   -1.1449    1.2072 C.ar    1  UNL1       -0.0143
     13 C           0.7638    0.1034    0.6395 C.ar    1  UNL1        0.1480
     14 O          -0.3767    0.5917    0.1937 O.2     1  UNL1       -0.4539
     15 C           2.1528    0.5430    0.6751 C.2     1  UNL1        0.0881
     16 N           2.9287   -0.0952   -0.1281 N.2     1  UNL1       -0.1802
     17 N           4.2873    0.2399   -0.1816 N.am    1  UNL1       -0.1678
     18 C           5.0954   -0.9648   -0.2300 C.3     1  UNL1        0.1159
     19 C           6.4973   -0.4664   -0.3515 C.2     1  UNL1        0.2399
     20 O           7.4996   -1.1949   -0.4712 O.2     1  UNL1       -0.2736
     21 N           6.4935    0.9389   -0.3085 N.am    1  UNL1       -0.2373
     22 C           5.1329    1.3705   -0.2040 C.2     1  UNL1        0.3284
     23 O           4.5533    2.4798   -0.1314 O.2     1  UNL1       -0.2504
     24 H          -4.8017    2.2058   -1.3983 H       1  UNL1        0.0685
     25 H          -2.4218    1.9081   -0.8221 H       1  UNL1        0.0627
     26 H          -3.4039   -1.8841    0.8607 H       1  UNL1        0.0627
     27 H          -5.7740   -1.6067    0.2962 H       1  UNL1        0.0685
     28 H          -1.4363   -2.2196    1.3810 H       1  UNL1        0.0656
     29 H           1.1267   -1.9082    1.6918 H       1  UNL1        0.0656
     30 H           2.5127    1.3486    1.3283 H       1  UNL1        0.0883
     31 H           4.9723   -1.5517    0.7065 H       1  UNL1        0.0582
     32 H           4.8908   -1.5576   -1.1330 H       1  UNL1        0.0582
     33 H           7.2544    1.6310   -0.3385 H       1  UNL1        0.1592
@<TRIPOS>UNITY_ATOM_ATTR
1 1
charge -1
2 1
charge 1
@<TRIPOS>BOND
     1     1     2    1
     2     2     3    2
     3     2     4    1
     4     4     5   ar
     5     5     6   ar
     6     6     7   ar
     7     7     8   ar
     8     8     9   ar
     9     7    10    1
    10    10    11   ar
    11    11    12   ar
    12    12    13   ar
    13    13    14   ar
    14    13    15    1
    15    15    16    2
    16    16    17    1
    17    17    18    1
    18    18    19    1
    19    19    20    2
    20    19    21   am
    21    21    22   am
    22    22    23    2
    23     9     4   ar
    24    14    10   ar
    25    22    17   am
    26     5    24    1
    27     6    25    1
    28     8    26    1
    29     9    27    1
    30    11    28    1
    31    12    29    1
    32    15    30    1
    33    18    31    1
    34    18    32    1
    35    21    33    1
