
     RDKit          3D

 33 35  0  0  0  0  0  0  0  0999 V2000
   -7.3574    1.6347   -1.5802 O   0  0  0  0  0  1  0  0  0  0  0  0
   -6.7612    0.5645   -0.9474 N   0  0  0  0  0  4  0  0  0  0  0  0
   -7.6396   -0.2836   -0.6902 O   0  0  0  0  0  0  0  0  0  0  0  0
   -5.4042    0.3276   -0.5858 C   0  0  0  0  0  0  0  0  0  0  0  0
   -4.4684    1.3128   -0.9000 C   0  0  0  0  0  0  0  0  0  0  0  0
   -3.1224    1.1313   -0.5676 C   0  0  0  0  0  0  0  0  0  0  0  0
   -2.7455   -0.0323    0.0714 C   0  0  0  0  0  0  0  0  0  0  0  0
   -3.7096   -0.9762    0.3601 C   0  0  0  0  0  0  0  0  0  0  0  0
   -5.0510   -0.8497    0.0556 C   0  0  0  0  0  0  0  0  0  0  0  0
   -1.3492   -0.2527    0.4320 C   0  0  0  0  0  0  0  0  0  0  0  0
   -0.8560   -1.3724    1.0704 C   0  0  0  0  0  0  0  0  0  0  0  0
    0.5176   -1.1449    1.2072 C   0  0  0  0  0  0  0  0  0  0  0  0
    0.7638    0.1034    0.6395 C   0  0  0  0  0  0  0  0  0  0  0  0
   -0.3767    0.5917    0.1937 O   0  0  0  0  0  0  0  0  0  0  0  0
    2.1528    0.5430    0.6751 C   0  0  0  0  0  0  0  0  0  0  0  0
    2.9287   -0.0952   -0.1281 N   0  0  0  0  0  0  0  0  0  0  0  0
    4.2873    0.2399   -0.1816 N   0  0  0  0  0  0  0  0  0  0  0  0
    5.0954   -0.9648   -0.2300 C   0  0  0  0  0  0  0  0  0  0  0  0
    6.4973   -0.4664   -0.3515 C   0  0  0  0  0  0  0  0  0  0  0  0
    7.4996   -1.1949   -0.4712 O   0  0  0  0  0  0  0  0  0  0  0  0
    6.4935    0.9389   -0.3085 N   0  0  0  0  0  0  0  0  0  0  0  0
    5.1329    1.3705   -0.2040 C   0  0  0  0  0  0  0  0  0  0  0  0
    4.5533    2.4798   -0.1314 O   0  0  0  0  0  0  0  0  0  0  0  0
   -4.8017    2.2058   -1.3983 H   0  0  0  0  0  0  0  0  0  0  0  0
   -2.4218    1.9081   -0.8221 H   0  0  0  0  0  0  0  0  0  0  0  0
   -3.4039   -1.8841    0.8607 H   0  0  0  0  0  0  0  0  0  0  0  0
   -5.7740   -1.6067    0.2962 H   0  0  0  0  0  0  0  0  0  0  0  0
   -1.4363   -2.2196    1.3810 H   0  0  0  0  0  0  0  0  0  0  0  0
    1.1267   -1.9082    1.6918 H   0  0  0  0  0  0  0  0  0  0  0  0
    2.5127    1.3486    1.3283 H   0  0  0  0  0  0  0  0  0  0  0  0
    4.9723   -1.5517    0.7065 H   0  0  0  0  0  0  0  0  0  0  0  0
    4.8908   -1.5576   -1.1330 H   0  0  0  0  0  0  0  0  0  0  0  0
    7.2544    1.6310   -0.3385 H   0  0  0  0  0  0  0  0  0  0  0  0
  1  2  1  0
  2  3  2  0
  2  4  1  0
  4  5  2  0
  5  6  1  0
  6  7  2  0
  7  8  1  0
  8  9  2  0
  7 10  1  0
 10 11  2  0
 11 12  1  0
 12 13  2  0
 13 14  1  0
 13 15  1  0
 15 16  2  3
 16 17  1  0
 17 18  1  0
 18 19  1  0
 19 20  2  0
 19 21  1  0
 21 22  1  0
 22 23  2  0
  9  4  1  0
 14 10  1  0
 22 17  1  0
  5 24  1  0
  6 25  1  0
  8 26  1  0
  9 27  1  0
 11 28  1  0
 12 29  1  0
 15 30  1  0
 18 31  1  0
 18 32  1  0
 21 33  1  0
M  CHG  2   1  -1   2   1
M  END
$$$$
