@<TRIPOS>MOLECULE
*****
 53 56 0 0 0
SMALL
GASTEIGER

@<TRIPOS>ATOM
      1 O          -5.1156    0.3074    1.3253 O.2     1  UNL1       -0.2522
      2 C          -4.7605    0.5537    0.1553 C.2     1  UNL1        0.3076
      3 N          -5.5318    0.1388   -0.9462 N.am    1  UNL1       -0.2526
      4 C          -6.7446   -0.5725   -0.8655 C.ar    1  UNL1        0.1486
      5 C          -7.4059   -0.9899    0.2482 C.ar    1  UNL1       -0.0182
      6 C          -8.6194   -1.6970    0.1526 C.ar    1  UNL1       -0.0386
      7 C          -9.1637   -1.9816   -1.0778 C.ar    1  UNL1        0.0501
      8 N          -8.4766   -1.5502   -2.1497 N.ar    1  UNL1       -0.1559
      9 N          -7.3456   -0.8914   -2.0547 N.ar    1  UNL1       -0.1340
     10 N          -3.5245    1.2831   -0.0238 N.am    1  UNL1       -0.2847
     11 C          -3.1044    1.5744   -1.3814 C.3     1  UNL1        0.0198
     12 C          -1.7000    2.1175   -1.4513 C.3     1  UNL1       -0.0155
     13 C          -0.8604    1.4474   -0.3768 C.2     1  UNL1       -0.0660
     14 C           0.2449    0.8650   -0.7227 C.2     1  UNL1       -0.0551
     15 C           1.1389    0.1851    0.1803 C.ar    1  UNL1       -0.0216
     16 C           0.7631   -0.8779    0.9634 C.ar    1  UNL1       -0.0544
     17 C           1.6197   -1.5070    1.8600 C.ar    1  UNL1       -0.0577
     18 C           2.9138   -1.0513    1.9774 C.ar    1  UNL1       -0.0192
     19 C           3.3256    0.0140    1.2049 C.ar    1  UNL1        0.1309
     20 O           4.6287    0.4571    1.3364 O.3     1  UNL1       -0.4380
     21 C           5.6785   -0.0334    0.5751 C.ar    1  UNL1        0.2205
     22 C           6.9392    0.5003    0.8084 C.ar    1  UNL1        0.0009
     23 C           8.0273    0.0795    0.1088 C.ar    1  UNL1       -0.0436
     24 C           7.8430   -0.9060   -0.8528 C.ar    1  UNL1        0.0731
     25 C           9.0588   -1.3394   -1.5964 C.3     1  UNL1        0.4188
     26 F           8.9430   -2.5881   -2.1351 F       1  UNL1       -0.1658
     27 F          10.1795   -1.3291   -0.7605 F       1  UNL1       -0.1658
     28 F           9.2713   -0.3948   -2.5873 F       1  UNL1       -0.1658
     29 C           6.5895   -1.4372   -1.0855 C.ar    1  UNL1        0.0430
     30 N           5.5679   -0.9751   -0.3602 N.ar    1  UNL1       -0.2204
     31 C           2.4690    0.6232    0.3265 C.ar    1  UNL1       -0.0121
     32 C          -1.2986    1.5289    1.0254 C.3     1  UNL1       -0.0155
     33 C          -2.8017    1.6691    1.1460 C.3     1  UNL1        0.0198
     34 H          -5.1284    0.4059   -1.9065 H       1  UNL1        0.1579
     35 H          -6.9879   -0.7716    1.2082 H       1  UNL1        0.0653
     36 H          -9.1093   -2.0086    1.0781 H       1  UNL1        0.0634
     37 H         -10.0933   -2.5224   -1.1853 H       1  UNL1        0.0848
     38 H          -3.0817    0.5884   -1.9234 H       1  UNL1        0.0468
     39 H          -3.8474    2.2556   -1.8303 H       1  UNL1        0.0468
     40 H          -1.7407    3.1989   -1.2986 H       1  UNL1        0.0325
     41 H          -1.2962    1.8716   -2.4531 H       1  UNL1        0.0325
     42 H           0.5565    0.8697   -1.7760 H       1  UNL1        0.0623
     43 H          -0.2379   -1.2924    0.8856 H       1  UNL1        0.0623
     44 H           1.2852   -2.3484    2.4664 H       1  UNL1        0.0619
     45 H           3.5600   -1.5579    2.6821 H       1  UNL1        0.0654
     46 H           7.0500    1.2726    1.5699 H       1  UNL1        0.0671
     47 H           8.9893    0.5224    0.3234 H       1  UNL1        0.0625
     48 H           6.5124   -2.2005   -1.8466 H       1  UNL1        0.0836
     49 H           2.7579    1.4684   -0.3014 H       1  UNL1        0.0660
     50 H          -0.9865    0.6871    1.6370 H       1  UNL1        0.0325
     51 H          -0.7927    2.4440    1.4445 H       1  UNL1        0.0325
     52 H          -3.0027    2.7727    1.2845 H       1  UNL1        0.0468
     53 H          -3.1552    1.1220    2.0292 H       1  UNL1        0.0468
@<TRIPOS>BOND
     1     1     2    2
     2     2     3   am
     3     3     4    1
     4     4     5   ar
     5     5     6   ar
     6     6     7   ar
     7     7     8   ar
     8     8     9   ar
     9     2    10   am
    10    10    11    1
    11    11    12    1
    12    12    13    1
    13    13    14    2
    14    14    15    1
    15    15    16   ar
    16    16    17   ar
    17    17    18   ar
    18    18    19   ar
    19    19    20    1
    20    20    21    1
    21    21    22   ar
    22    22    23   ar
    23    23    24   ar
    24    24    25    1
    25    25    26    1
    26    25    27    1
    27    25    28    1
    28    24    29   ar
    29    29    30   ar
    30    19    31   ar
    31    13    32    1
    32    32    33    1
    33     9     4   ar
    34    33    10    1
    35    31    15   ar
    36    30    21   ar
    37     3    34    1
    38     5    35    1
    39     6    36    1
    40     7    37    1
    41    11    38    1
    42    11    39    1
    43    12    40    1
    44    12    41    1
    45    14    42    1
    46    16    43    1
    47    17    44    1
    48    18    45    1
    49    22    46    1
    50    23    47    1
    51    29    48    1
    52    31    49    1
    53    32    50    1
    54    32    51    1
    55    33    52    1
    56    33    53    1
