@<TRIPOS>MOLECULE
*****
 35 36 0 0 0
SMALL
GASTEIGER

@<TRIPOS>ATOM
      1 C           6.8988    0.1443    0.4502 C.3     1  UNL1        0.0125
      2 C           5.4327   -0.1397    0.3783 C.2     1  UNL1        0.2141
      3 O           4.8833   -0.9140    1.2045 O.2     1  UNL1       -0.2758
      4 N           4.5999    0.4479   -0.6194 N.am    1  UNL1       -0.2857
      5 C           3.2154    0.1455   -0.6438 C.ar    1  UNL1        0.0334
      6 C           2.3421    0.9311    0.0719 C.ar    1  UNL1       -0.0398
      7 C           0.9636    0.6832    0.0877 C.ar    1  UNL1       -0.0479
      8 C           0.4475   -0.3634   -0.6206 C.ar    1  UNL1        0.0371
      9 C          -0.9915   -0.7020   -0.6637 C.2     1  UNL1        0.2483
     10 O          -1.3866   -1.6845   -1.3416 O.2     1  UNL1       -0.2699
     11 N          -1.9314    0.0487    0.0358 N.am    1  UNL1       -0.2800
     12 C          -3.3386   -0.1565    0.0879 C.ar    1  UNL1        0.0545
     13 C          -4.0436   -1.1350   -0.5416 C.ar    1  UNL1       -0.0387
     14 C          -5.4217   -1.2707   -0.4417 C.ar    1  UNL1       -0.0599
     15 C          -6.1422   -0.4010    0.3149 C.ar    1  UNL1       -0.0599
     16 C          -5.4551    0.6152    0.9753 C.ar    1  UNL1       -0.0392
     17 C          -4.0884    0.7334    0.8639 C.ar    1  UNL1        0.0461
     18 N          -3.4624    1.7930    1.5657 N.pl3   1  UNL1       -0.3565
     19 C           1.3108   -1.1599   -1.3430 C.ar    1  UNL1       -0.0479
     20 C           2.6498   -0.9013   -1.3449 C.ar    1  UNL1       -0.0398
     21 H           7.1565    0.8238    1.2795 H       1  UNL1        0.0323
     22 H           7.3931   -0.8366    0.6794 H       1  UNL1        0.0323
     23 H           7.3071    0.4822   -0.5008 H       1  UNL1        0.0323
     24 H           5.0026    1.0860   -1.3153 H       1  UNL1        0.1548
     25 H           2.7310    1.7662    0.6403 H       1  UNL1        0.0636
     26 H           0.3345    1.3386    0.6702 H       1  UNL1        0.0626
     27 H          -1.5173    0.8690    0.5894 H       1  UNL1        0.1552
     28 H          -3.5587   -1.8627   -1.1574 H       1  UNL1        0.0637
     29 H          -5.9493   -2.0755   -0.9670 H       1  UNL1        0.0618
     30 H          -7.2155   -0.5166    0.3853 H       1  UNL1        0.0618
     31 H          -6.0267    1.3003    1.5718 H       1  UNL1        0.0636
     32 H          -3.4945    1.9018    2.6024 H       1  UNL1        0.1424
     33 H          -2.9402    2.5007    0.9945 H       1  UNL1        0.1424
     34 H           0.9183   -1.9832   -1.9020 H       1  UNL1        0.0626
     35 H           3.3766   -1.5081   -1.9054 H       1  UNL1        0.0636
@<TRIPOS>BOND
     1     1     2    1
     2     2     3    2
     3     2     4   am
     4     4     5    1
     5     5     6   ar
     6     6     7   ar
     7     7     8   ar
     8     8     9    1
     9     9    10    2
    10     9    11   am
    11    11    12    1
    12    12    13   ar
    13    13    14   ar
    14    14    15   ar
    15    15    16   ar
    16    16    17   ar
    17    17    18    1
    18     8    19   ar
    19    19    20   ar
    20    20     5   ar
    21    17    12   ar
    22     1    21    1
    23     1    22    1
    24     1    23    1
    25     4    24    1
    26     6    25    1
    27     7    26    1
    28    11    27    1
    29    13    28    1
    30    14    29    1
    31    15    30    1
    32    16    31    1
    33    18    32    1
    34    18    33    1
    35    19    34    1
    36    20    35    1
