
     RDKit          3D

 35 36  0  0  0  0  0  0  0  0999 V2000
    6.8988    0.1443    0.4502 C   0  0  0  0  0  0  0  0  0  0  0  0
    5.4327   -0.1397    0.3783 C   0  0  0  0  0  0  0  0  0  0  0  0
    4.8833   -0.9140    1.2045 O   0  0  0  0  0  0  0  0  0  0  0  0
    4.5999    0.4479   -0.6194 N   0  0  0  0  0  0  0  0  0  0  0  0
    3.2154    0.1455   -0.6438 C   0  0  0  0  0  0  0  0  0  0  0  0
    2.3421    0.9311    0.0719 C   0  0  0  0  0  0  0  0  0  0  0  0
    0.9636    0.6832    0.0877 C   0  0  0  0  0  0  0  0  0  0  0  0
    0.4475   -0.3634   -0.6206 C   0  0  0  0  0  0  0  0  0  0  0  0
   -0.9915   -0.7020   -0.6637 C   0  0  0  0  0  0  0  0  0  0  0  0
   -1.3866   -1.6845   -1.3416 O   0  0  0  0  0  0  0  0  0  0  0  0
   -1.9314    0.0487    0.0358 N   0  0  0  0  0  0  0  0  0  0  0  0
   -3.3386   -0.1565    0.0879 C   0  0  0  0  0  0  0  0  0  0  0  0
   -4.0436   -1.1350   -0.5416 C   0  0  0  0  0  0  0  0  0  0  0  0
   -5.4217   -1.2707   -0.4417 C   0  0  0  0  0  0  0  0  0  0  0  0
   -6.1422   -0.4010    0.3149 C   0  0  0  0  0  0  0  0  0  0  0  0
   -5.4551    0.6152    0.9753 C   0  0  0  0  0  0  0  0  0  0  0  0
   -4.0884    0.7334    0.8639 C   0  0  0  0  0  0  0  0  0  0  0  0
   -3.4624    1.7930    1.5657 N   0  0  0  0  0  0  0  0  0  0  0  0
    1.3108   -1.1599   -1.3430 C   0  0  0  0  0  0  0  0  0  0  0  0
    2.6498   -0.9013   -1.3449 C   0  0  0  0  0  0  0  0  0  0  0  0
    7.1565    0.8238    1.2795 H   0  0  0  0  0  0  0  0  0  0  0  0
    7.3931   -0.8366    0.6794 H   0  0  0  0  0  0  0  0  0  0  0  0
    7.3071    0.4822   -0.5008 H   0  0  0  0  0  0  0  0  0  0  0  0
    5.0026    1.0860   -1.3153 H   0  0  0  0  0  0  0  0  0  0  0  0
    2.7310    1.7662    0.6403 H   0  0  0  0  0  0  0  0  0  0  0  0
    0.3345    1.3386    0.6702 H   0  0  0  0  0  0  0  0  0  0  0  0
   -1.5173    0.8690    0.5894 H   0  0  0  0  0  0  0  0  0  0  0  0
   -3.5587   -1.8627   -1.1574 H   0  0  0  0  0  0  0  0  0  0  0  0
   -5.9493   -2.0755   -0.9670 H   0  0  0  0  0  0  0  0  0  0  0  0
   -7.2155   -0.5166    0.3853 H   0  0  0  0  0  0  0  0  0  0  0  0
   -6.0267    1.3003    1.5718 H   0  0  0  0  0  0  0  0  0  0  0  0
   -3.4945    1.9018    2.6024 H   0  0  0  0  0  0  0  0  0  0  0  0
   -2.9402    2.5007    0.9945 H   0  0  0  0  0  0  0  0  0  0  0  0
    0.9183   -1.9832   -1.9020 H   0  0  0  0  0  0  0  0  0  0  0  0
    3.3766   -1.5081   -1.9054 H   0  0  0  0  0  0  0  0  0  0  0  0
  1  2  1  0
  2  3  2  0
  2  4  1  0
  4  5  1  0
  5  6  2  0
  6  7  1  0
  7  8  2  0
  8  9  1  0
  9 10  2  0
  9 11  1  0
 11 12  1  0
 12 13  2  0
 13 14  1  0
 14 15  2  0
 15 16  1  0
 16 17  2  0
 17 18  1  0
  8 19  1  0
 19 20  2  0
 20  5  1  0
 17 12  1  0
  1 21  1  0
  1 22  1  0
  1 23  1  0
  4 24  1  0
  6 25  1  0
  7 26  1  0
 11 27  1  0
 13 28  1  0
 14 29  1  0
 15 30  1  0
 16 31  1  0
 18 32  1  0
 18 33  1  0
 19 34  1  0
 20 35  1  0
M  END
$$$$
