@<TRIPOS>MOLECULE
*****
 37 38 0 0 0
SMALL
GASTEIGER

@<TRIPOS>ATOM
      1 C          -0.5256    0.1216    0.1893 C.3     1  UNL1        0.1421
      2 C          -0.1551   -1.0584   -0.7172 C.3     1  UNL1        0.0244
      3 C           1.3104   -1.2102   -0.3475 C.3     1  UNL1        0.1617
      4 N           1.4615   -2.2973    0.6065 N.2     1  UNL1        0.0825
      5 N           1.3781   -2.0804    1.8272 N.2     1  UNL1       -0.0144
      6 N           1.0875   -1.7853    2.9923 N.2     1  UNL1       -0.3282
      7 C           1.5990    0.0964    0.3267 C.3     1  UNL1        0.1139
      8 C           2.9521    0.6537   -0.0363 C.3     1  UNL1        0.0876
      9 O           3.8900   -0.3264    0.3626 O.3     1  UNL1       -0.2841
     10 P           5.4585    0.1370    0.0290 P.3     1  UNL1        0.4724
     11 O           5.5821    1.2733   -1.2114 O.3     1  UNL1       -0.3026
     12 O           6.4429   -1.1669   -0.4025 O.3     1  UNL1       -0.3026
     13 O           6.0707    0.7677    1.2803 O.2     1  UNL1       -0.2275
     14 O           0.5469    0.9534   -0.0054 O.3     1  UNL1       -0.3485
     15 N          -1.8081    0.6668   -0.1545 N.ar    1  UNL1       -0.2722
     16 C          -2.8274   -0.2100    0.0789 C.ar    1  UNL1        0.0198
     17 C          -4.1369    0.1435   -0.1936 C.ar    1  UNL1        0.0273
     18 C          -5.2729   -0.7894    0.0493 C.3     1  UNL1       -0.0333
     19 C          -4.4392    1.4000   -0.7108 C.ar    1  UNL1        0.2212
     20 O          -5.7436    1.7351   -0.9757 O.3     1  UNL1       -0.4921
     21 N          -3.3922    2.2149   -0.9174 N.ar    1  UNL1       -0.1575
     22 C          -2.1178    1.8723   -0.6528 C.ar    1  UNL1        0.3535
     23 O          -1.1278    2.6126   -0.8364 O.2     1  UNL1       -0.2443
     24 H          -0.4983   -0.2678    1.2151 H       1  UNL1        0.0840
     25 H          -0.7639   -1.9241   -0.4580 H       1  UNL1        0.0332
     26 H          -0.2813   -0.7746   -1.7831 H       1  UNL1        0.0332
     27 H           1.9250   -1.3747   -1.2576 H       1  UNL1        0.0643
     28 H           1.5794   -0.0037    1.4303 H       1  UNL1        0.0644
     29 H           3.0590    0.7807   -1.1132 H       1  UNL1        0.0592
     30 H           3.1458    1.5784    0.5091 H       1  UNL1        0.0592
     31 H           5.0897    2.0805   -0.9046 H       1  UNL1        0.2220
     32 H           5.9815   -2.0385   -0.3712 H       1  UNL1        0.2220
     33 H          -2.7119   -1.2225    0.4824 H       1  UNL1        0.0816
     34 H          -5.5463   -1.2726   -0.9049 H       1  UNL1        0.0280
     35 H          -4.8706   -1.5867    0.7398 H       1  UNL1        0.0280
     36 H          -6.1167   -0.2725    0.5440 H       1  UNL1        0.0280
     37 H          -6.2247    2.5740   -0.7489 H       1  UNL1        0.2937
@<TRIPOS>UNITY_ATOM_ATTR
5 1
charge 1
6 1
charge -1
@<TRIPOS>BOND
     1     1     2    1
     2     2     3    1
     3     3     4    1
     4     4     5    2
     5     5     6    2
     6     3     7    1
     7     7     8    1
     8     8     9    1
     9     9    10    1
    10    10    11    1
    11    10    12    1
    12    10    13    2
    13     7    14    1
    14     1    15    1
    15    15    16   ar
    16    16    17   ar
    17    17    18    1
    18    17    19   ar
    19    19    20    1
    20    19    21   ar
    21    21    22   ar
    22    22    23    2
    23    14     1    1
    24    22    15   ar
    25     1    24    1
    26     2    25    1
    27     2    26    1
    28     3    27    1
    29     7    28    1
    30     8    29    1
    31     8    30    1
    32    11    31    1
    33    12    32    1
    34    16    33    1
    35    18    34    1
    36    18    35    1
    37    18    36    1
    38    20    37    1
