
     RDKit          3D

 37 38  0  0  0  0  0  0  0  0999 V2000
   -0.5256    0.1216    0.1893 C   0  0  1  0  0  0  0  0  0  0  0  0
   -0.1551   -1.0584   -0.7172 C   0  0  0  0  0  0  0  0  0  0  0  0
    1.3104   -1.2102   -0.3475 C   0  0  2  0  0  0  0  0  0  0  0  0
    1.4615   -2.2973    0.6065 N   0  0  0  0  0  0  0  0  0  0  0  0
    1.3781   -2.0804    1.8272 N   0  0  0  0  0  4  0  0  0  0  0  0
    1.0875   -1.7853    2.9923 N   0  0  0  0  0  2  0  0  0  0  0  0
    1.5990    0.0964    0.3267 C   0  0  1  0  0  0  0  0  0  0  0  0
    2.9521    0.6537   -0.0363 C   0  0  0  0  0  0  0  0  0  0  0  0
    3.8900   -0.3264    0.3626 O   0  0  0  0  0  0  0  0  0  0  0  0
    5.4585    0.1370    0.0290 P   0  0  0  0  0  0  0  0  0  0  0  0
    5.5821    1.2733   -1.2114 O   0  0  0  0  0  0  0  0  0  0  0  0
    6.4429   -1.1669   -0.4025 O   0  0  0  0  0  0  0  0  0  0  0  0
    6.0707    0.7677    1.2803 O   0  0  0  0  0  0  0  0  0  0  0  0
    0.5469    0.9534   -0.0054 O   0  0  0  0  0  0  0  0  0  0  0  0
   -1.8081    0.6668   -0.1545 N   0  0  0  0  0  0  0  0  0  0  0  0
   -2.8274   -0.2100    0.0789 C   0  0  0  0  0  0  0  0  0  0  0  0
   -4.1369    0.1435   -0.1936 C   0  0  0  0  0  0  0  0  0  0  0  0
   -5.2729   -0.7894    0.0493 C   0  0  0  0  0  0  0  0  0  0  0  0
   -4.4392    1.4000   -0.7108 C   0  0  0  0  0  0  0  0  0  0  0  0
   -5.7436    1.7351   -0.9757 O   0  0  0  0  0  0  0  0  0  0  0  0
   -3.3922    2.2149   -0.9174 N   0  0  0  0  0  0  0  0  0  0  0  0
   -2.1178    1.8723   -0.6528 C   0  0  0  0  0  0  0  0  0  0  0  0
   -1.1278    2.6126   -0.8364 O   0  0  0  0  0  0  0  0  0  0  0  0
   -0.4983   -0.2678    1.2151 H   0  0  0  0  0  0  0  0  0  0  0  0
   -0.7639   -1.9241   -0.4580 H   0  0  0  0  0  0  0  0  0  0  0  0
   -0.2813   -0.7746   -1.7831 H   0  0  0  0  0  0  0  0  0  0  0  0
    1.9250   -1.3747   -1.2576 H   0  0  0  0  0  0  0  0  0  0  0  0
    1.5794   -0.0037    1.4303 H   0  0  0  0  0  0  0  0  0  0  0  0
    3.0590    0.7807   -1.1132 H   0  0  0  0  0  0  0  0  0  0  0  0
    3.1458    1.5784    0.5091 H   0  0  0  0  0  0  0  0  0  0  0  0
    5.0897    2.0805   -0.9046 H   0  0  0  0  0  0  0  0  0  0  0  0
    5.9815   -2.0385   -0.3712 H   0  0  0  0  0  0  0  0  0  0  0  0
   -2.7119   -1.2225    0.4824 H   0  0  0  0  0  0  0  0  0  0  0  0
   -5.5463   -1.2726   -0.9049 H   0  0  0  0  0  0  0  0  0  0  0  0
   -4.8706   -1.5867    0.7398 H   0  0  0  0  0  0  0  0  0  0  0  0
   -6.1167   -0.2725    0.5440 H   0  0  0  0  0  0  0  0  0  0  0  0
   -6.2247    2.5740   -0.7489 H   0  0  0  0  0  0  0  0  0  0  0  0
  1  2  1  0
  2  3  1  0
  3  4  1  0
  4  5  2  0
  5  6  2  0
  3  7  1  0
  7  8  1  0
  8  9  1  0
  9 10  1  0
 10 11  1  0
 10 12  1  0
 10 13  2  0
  7 14  1  0
  1 15  1  0
 15 16  1  0
 16 17  2  0
 17 18  1  0
 17 19  1  0
 19 20  1  0
 19 21  2  0
 21 22  1  0
 22 23  2  0
 14  1  1  0
 22 15  1  0
  1 24  1  1
  2 25  1  0
  2 26  1  0
  3 27  1  6
  7 28  1  1
  8 29  1  0
  8 30  1  0
 11 31  1  0
 12 32  1  0
 16 33  1  0
 18 34  1  0
 18 35  1  0
 18 36  1  0
 20 37  1  0
M  CHG  2   5   1   6  -1
M  END
$$$$
