@<TRIPOS>MOLECULE
*****
 27 28 0 0 0
SMALL
GASTEIGER

@<TRIPOS>ATOM
      1 N          -1.6435   -1.0272    1.0898 N.3     1  TRP1       -0.3181
      2 CA         -2.1749   -0.2703   -0.0023 C.3     1  TRP1        0.1073
      3 CB         -1.2775    0.8635   -0.3862 C.3     1  TRP1       -0.0001
      4 CG          0.0775    0.4723   -0.8048 C.ar    1  TRP1       -0.0204
      5 CD1         0.5464    0.3460   -2.1103 C.ar    1  TRP1        0.0060
      6 NE1         1.8218   -0.0483   -2.1560 N.ar    1  TRP1       -0.3604
      7 CE2         2.2165   -0.1886   -0.8830 C.ar    1  TRP1        0.0467
      8 CZ2         3.4230   -0.5648   -0.3231 C.ar    1  TRP1       -0.0378
      9 CH2         3.6399   -0.6449    1.0475 C.ar    1  TRP1       -0.0598
     10 CZ3         2.5837   -0.3284    1.8687 C.ar    1  TRP1       -0.0611
     11 CE3         1.3819    0.0461    1.3011 C.ar    1  TRP1       -0.0523
     12 CD2         1.1801    0.1207   -0.0530 C.ar    1  TRP1        0.0029
     13 C          -3.5317    0.2657    0.3052 C.2     1  TRP1        0.3220
     14 O          -4.4245    1.0299   -0.4166 O.3     1  TRP1       -0.4795
     15 OXT        -4.1153    0.0619    1.4118 O.2     1  TRP1       -0.2492
     16 H1         -1.7301   -0.5670    2.0113 H       1  TRP1        0.1190
     17 H2         -1.9144   -2.0334    1.1062 H       1  TRP1        0.1190
     18 HA         -2.2822   -0.9349   -0.8703 H       1  TRP1        0.0577
     19 HB1        -1.2096    1.6099    0.4359 H       1  TRP1        0.0334
     20 HB2        -1.7329    1.4165   -1.2494 H       1  TRP1        0.0334
     21 HD1        -0.0297    0.5366   -3.0003 H       1  TRP1        0.0810
     22 HE1         2.3906   -0.2115   -3.0247 H       1  TRP1        0.1653
     23 HZ2         4.2340   -0.8069   -0.9956 H       1  TRP1        0.0638
     24 HH2         4.6199   -0.9495    1.3810 H       1  TRP1        0.0618
     25 HZ3         2.7266   -0.3827    2.9472 H       1  TRP1        0.0618
     26 HE3         0.5921    0.2902    1.9943 H       1  TRP1        0.0624
     27 H          -5.3677    0.6885   -0.6244 H       1  TRP1        0.2951
@<TRIPOS>BOND
     1     1     2    1
     2     2     3    1
     3     3     4    1
     4     4     5   ar
     5     5     6   ar
     6     6     7   ar
     7     7     8   ar
     8     8     9   ar
     9     9    10   ar
    10    10    11   ar
    11    11    12   ar
    12     2    13    1
    13    13    14    1
    14    13    15    2
    15    12     4   ar
    16    12     7   ar
    17     1    16    1
    18     1    17    1
    19     2    18    1
    20     3    19    1
    21     3    20    1
    22     5    21    1
    23     6    22    1
    24     8    23    1
    25     9    24    1
    26    10    25    1
    27    11    26    1
    28    14    27    1
