
     RDKit          3D

 27 28  0  0  0  0  0  0  0  0999 V2000
   -1.6435   -1.0272    1.0898 N   0  0  0  0  0  0  0  0  0  0  0  0
   -2.1749   -0.2703   -0.0023 C   0  0  2  0  0  0  0  0  0  0  0  0
   -1.2775    0.8635   -0.3862 C   0  0  0  0  0  0  0  0  0  0  0  0
    0.0775    0.4723   -0.8048 C   0  0  0  0  0  0  0  0  0  0  0  0
    0.5464    0.3460   -2.1103 C   0  0  0  0  0  0  0  0  0  0  0  0
    1.8218   -0.0483   -2.1560 N   0  0  0  0  0  0  0  0  0  0  0  0
    2.2165   -0.1886   -0.8830 C   0  0  0  0  0  0  0  0  0  0  0  0
    3.4230   -0.5648   -0.3231 C   0  0  0  0  0  0  0  0  0  0  0  0
    3.6399   -0.6449    1.0475 C   0  0  0  0  0  0  0  0  0  0  0  0
    2.5837   -0.3284    1.8687 C   0  0  0  0  0  0  0  0  0  0  0  0
    1.3819    0.0461    1.3011 C   0  0  0  0  0  0  0  0  0  0  0  0
    1.1801    0.1207   -0.0530 C   0  0  0  0  0  0  0  0  0  0  0  0
   -3.5317    0.2657    0.3052 C   0  0  0  0  0  0  0  0  0  0  0  0
   -4.4245    1.0299   -0.4166 O   0  0  0  0  0  0  0  0  0  0  0  0
   -4.1153    0.0619    1.4118 O   0  0  0  0  0  0  0  0  0  0  0  0
   -1.7301   -0.5670    2.0113 H   0  0  0  0  0  0  0  0  0  0  0  0
   -1.9144   -2.0334    1.1062 H   0  0  0  0  0  0  0  0  0  0  0  0
   -2.2822   -0.9349   -0.8703 H   0  0  0  0  0  0  0  0  0  0  0  0
   -1.2096    1.6099    0.4359 H   0  0  0  0  0  0  0  0  0  0  0  0
   -1.7329    1.4165   -1.2494 H   0  0  0  0  0  0  0  0  0  0  0  0
   -0.0297    0.5366   -3.0003 H   0  0  0  0  0  0  0  0  0  0  0  0
    2.3906   -0.2115   -3.0247 H   0  0  0  0  0  0  0  0  0  0  0  0
    4.2340   -0.8069   -0.9956 H   0  0  0  0  0  0  0  0  0  0  0  0
    4.6199   -0.9495    1.3810 H   0  0  0  0  0  0  0  0  0  0  0  0
    2.7266   -0.3827    2.9472 H   0  0  0  0  0  0  0  0  0  0  0  0
    0.5921    0.2902    1.9943 H   0  0  0  0  0  0  0  0  0  0  0  0
   -5.3677    0.6885   -0.6244 H   0  0  0  0  0  0  0  0  0  0  0  0
  1  2  1  0
  2  3  1  0
  3  4  1  0
  4  5  2  0
  5  6  1  0
  6  7  1  0
  7  8  2  0
  8  9  1  0
  9 10  2  0
 10 11  1  0
 11 12  2  0
  2 13  1  0
 13 14  1  0
 13 15  2  0
 12  4  1  0
 12  7  1  0
  1 16  1  0
  1 17  1  0
  2 18  1  6
  3 19  1  0
  3 20  1  0
  5 21  1  0
  6 22  1  0
  8 23  1  0
  9 24  1  0
 10 25  1  0
 11 26  1  0
 14 27  1  0
M  END
$$$$
