@<TRIPOS>MOLECULE
*****
 50 52 0 0 0
SMALL
GASTEIGER

@<TRIPOS>ATOM
      1 C          -0.1677   -2.7448    1.6786 C.2     1  UNL1       -0.0951
      2 C          -1.1766   -2.6948    0.8761 C.2     1  UNL1       -0.0472
      3 C          -1.8485   -4.0047    0.5370 C.3     1  UNL1       -0.0396
      4 C          -1.6740   -1.5079    0.2271 C.ar    1  UNL1        0.0166
      5 C          -2.9894   -1.5853   -0.2742 C.ar    1  UNL1        0.0374
      6 N          -3.5320   -0.5275   -0.8558 N.ar    1  UNL1       -0.2542
      7 C          -2.8478    0.6540   -0.9875 C.ar    1  UNL1        0.0755
      8 C          -3.5811    1.7225   -1.6455 C.ar    1  UNL1        0.0369
      9 C          -4.8836    1.4839   -2.0830 C.ar    1  UNL1       -0.0314
     10 C          -5.6583    2.4264   -2.7144 C.ar    1  UNL1        0.0418
     11 CL         -7.2949    2.0718   -3.2454 Cl      1  UNL1       -0.0835
     12 C          -5.1542    3.6880   -2.9453 C.ar    1  UNL1       -0.0406
     13 C          -3.8805    3.9638   -2.5320 C.ar    1  UNL1       -0.0244
     14 C          -3.1133    2.9844   -1.8909 C.ar    1  UNL1        0.1326
     15 F          -1.8631    3.3131   -1.5051 F       1  UNL1       -0.2048
     16 C          -1.5692    0.7414   -0.5079 C.ar    1  UNL1       -0.0138
     17 C          -0.9598   -0.3615    0.1124 C.ar    1  UNL1        0.0423
     18 N           0.4082   -0.2159    0.5384 N.pl3   1  UNL1       -0.3133
     19 C           1.4474   -0.9157   -0.1243 C.ar    1  UNL1        0.0465
     20 C           1.1043   -1.6974   -1.2175 C.ar    1  UNL1       -0.0217
     21 C           2.0394   -2.4098   -1.9166 C.ar    1  UNL1        0.0293
     22 N           3.3217   -2.3414   -1.5230 N.ar    1  UNL1       -0.2624
     23 C           3.6663   -1.5881   -0.4662 C.ar    1  UNL1        0.0415
     24 C           2.7423   -0.8416    0.2799 C.ar    1  UNL1        0.0758
     25 C           3.2091   -0.0572    1.4152 C.2     1  UNL1        0.2474
     26 O           2.4409    0.6123    2.1182 O.2     1  UNL1       -0.2701
     27 N           4.5864   -0.0091    1.7925 N.am    1  UNL1       -0.3091
     28 C           5.0456    0.7792    2.9241 C.3     1  UNL1        0.0351
     29 C           4.7646    2.2488    2.7474 C.3     1  UNL1        0.0597
     30 O           5.2116    2.9916    3.8403 O.3     1  UNL1       -0.3935
     31 H           0.4606   -1.9855    2.0683 H       1  UNL1        0.0538
     32 H           0.1304   -3.7583    2.0547 H       1  UNL1        0.0538
     33 H          -2.8295   -4.0035    1.0619 H       1  UNL1        0.0278
     34 H          -1.2221   -4.8634    0.8100 H       1  UNL1        0.0278
     35 H          -2.0534   -4.0688   -0.5481 H       1  UNL1        0.0278
     36 H          -3.5671   -2.5146   -0.1852 H       1  UNL1        0.0836
     37 H          -5.3650    0.5116   -1.9422 H       1  UNL1        0.0639
     38 H          -5.7761    4.4424   -3.4514 H       1  UNL1        0.0633
     39 H          -3.4331    4.9282   -2.6837 H       1  UNL1        0.0647
     40 H          -1.0139    1.6469   -0.5965 H       1  UNL1        0.0658
     41 H           0.5901    0.4064    1.3230 H       1  UNL1        0.1522
     42 H           0.0731   -1.7717   -1.5617 H       1  UNL1        0.0651
     43 H           1.7941   -3.0322   -2.7802 H       1  UNL1        0.0830
     44 H           4.7085   -1.5782   -0.2052 H       1  UNL1        0.0838
     45 H           5.3124   -0.5281    1.2814 H       1  UNL1        0.1491
     46 H           4.4081    0.4344    3.7943 H       1  UNL1        0.0485
     47 H           6.0794    0.5652    3.1841 H       1  UNL1        0.0485
     48 H           5.3608    2.6137    1.8717 H       1  UNL1        0.0573
     49 H           3.7140    2.4710    2.5079 H       1  UNL1        0.0573
     50 H           4.8347    3.9060    3.7319 H       1  UNL1        0.2095
@<TRIPOS>BOND
     1     1     2    2
     2     2     3    1
     3     2     4    1
     4     4     5   ar
     5     5     6   ar
     6     6     7   ar
     7     7     8    1
     8     8     9   ar
     9     9    10   ar
    10    10    11    1
    11    10    12   ar
    12    12    13   ar
    13    13    14   ar
    14    14    15    1
    15     7    16   ar
    16    16    17   ar
    17    17    18    1
    18    18    19    1
    19    19    20   ar
    20    20    21   ar
    21    21    22   ar
    22    22    23   ar
    23    23    24   ar
    24    24    25    1
    25    25    26    2
    26    25    27   am
    27    27    28    1
    28    28    29    1
    29    29    30    1
    30    17     4   ar
    31    24    19   ar
    32    14     8   ar
    33     1    31    1
    34     1    32    1
    35     3    33    1
    36     3    34    1
    37     3    35    1
    38     5    36    1
    39     9    37    1
    40    12    38    1
    41    13    39    1
    42    16    40    1
    43    18    41    1
    44    20    42    1
    45    21    43    1
    46    23    44    1
    47    27    45    1
    48    28    46    1
    49    28    47    1
    50    29    48    1
    51    29    49    1
    52    30    50    1
