
     RDKit          3D

 60 63  0  0  0  0  0  0  0  0999 V2000
    8.1773    0.0962    0.6047 C   0  0  0  0  0  0  0  0  0  0  0  0
    7.3629   -1.0234    0.2974 O   0  0  0  0  0  0  0  0  0  0  0  0
    5.9949   -0.8074    0.2115 C   0  0  0  0  0  0  0  0  0  0  0  0
    5.4152    0.4433    0.4130 C   0  0  0  0  0  0  0  0  0  0  0  0
    4.0666    0.6617    0.3294 C   0  0  0  0  0  0  0  0  0  0  0  0
    3.2407   -0.3933    0.0342 C   0  0  0  0  0  0  0  0  0  0  0  0
    3.7955   -1.6436   -0.1696 C   0  0  0  0  0  0  0  0  0  0  0  0
    5.1575   -1.8601   -0.0842 C   0  0  0  0  0  0  0  0  0  0  0  0
    5.6668   -3.1318   -0.2967 O   0  0  0  0  0  0  0  0  0  0  0  0
    4.8539   -4.2423   -0.6020 C   0  0  0  0  0  0  0  0  0  0  0  0
    1.8322    0.0935   -0.0047 C   0  0  0  0  0  0  0  0  0  0  0  0
    0.9082   -0.7429    0.0866 O   0  0  0  0  0  0  0  0  0  0  0  0
    1.8869    1.5413   -0.1530 C   0  0  0  0  0  0  0  0  0  0  0  0
    0.8658    2.3878    0.4707 C   0  0  0  0  0  0  0  0  0  0  0  0
   -0.5544    2.2737    0.1293 C   0  0  0  0  0  0  0  0  0  0  0  0
   -0.8854    2.4844   -1.3430 C   0  0  0  0  0  0  0  0  0  0  0  0
   -2.3942    2.5397   -1.4448 C   0  0  0  0  0  0  0  0  0  0  0  0
   -3.0101    1.3077   -1.0123 N   0  0  0  0  0  0  0  0  0  0  0  0
   -4.2660    1.5086   -0.3648 C   0  0  0  0  0  0  0  0  0  0  0  0
   -4.9110    0.2562    0.0902 C   0  0  0  0  0  0  0  0  0  0  0  0
   -4.7438   -0.2987    1.3413 C   0  0  0  0  0  0  0  0  0  0  0  0
   -5.3617   -1.4683    1.7301 C   0  0  0  0  0  0  0  0  0  0  0  0
   -6.1894   -2.1423    0.8609 C   0  0  0  0  0  0  0  0  0  0  0  0
   -6.8791   -3.4096    1.2353 C   0  0  0  0  0  0  0  0  0  0  0  0
   -6.3739   -1.6104   -0.3945 C   0  0  0  0  0  0  0  0  0  0  0  0
   -5.7553   -0.4400   -0.7828 C   0  0  0  0  0  0  0  0  0  0  0  0
   -2.0988    0.4246   -0.3465 C   0  0  0  0  0  0  0  0  0  0  0  0
   -1.3803    1.2089    0.7495 C   0  0  0  0  0  0  0  0  0  0  0  0
    3.2475    1.8783    0.5042 C   0  0  0  0  0  0  0  0  0  0  0  0
    7.9167    0.4934    1.5942 H   0  0  0  0  0  0  0  0  0  0  0  0
    8.0242    0.9233   -0.1364 H   0  0  0  0  0  0  0  0  0  0  0  0
    9.2242   -0.2186    0.5541 H   0  0  0  0  0  0  0  0  0  0  0  0
    6.0679    1.2625    0.6433 H   0  0  0  0  0  0  0  0  0  0  0  0
    3.1590   -2.4841   -0.4027 H   0  0  0  0  0  0  0  0  0  0  0  0
    4.3944   -4.6303    0.3453 H   0  0  0  0  0  0  0  0  0  0  0  0
    5.5246   -5.0674   -0.9684 H   0  0  0  0  0  0  0  0  0  0  0  0
    4.0871   -4.0296   -1.3575 H   0  0  0  0  0  0  0  0  0  0  0  0
    2.0819    1.7973   -1.2340 H   0  0  0  0  0  0  0  0  0  0  0  0
    0.9367    2.2428    1.6007 H   0  0  0  0  0  0  0  0  0  0  0  0
    1.2051    3.4735    0.3774 H   0  0  0  0  0  0  0  0  0  0  0  0
   -1.0117    3.2578    0.5797 H   0  0  0  0  0  0  0  0  0  0  0  0
   -0.4683    3.4439   -1.6477 H   0  0  0  0  0  0  0  0  0  0  0  0
   -0.5548    1.6372   -1.9637 H   0  0  0  0  0  0  0  0  0  0  0  0
   -2.7195    2.7214   -2.4952 H   0  0  0  0  0  0  0  0  0  0  0  0
   -2.7270    3.3858   -0.8092 H   0  0  0  0  0  0  0  0  0  0  0  0
   -4.0612    2.1544    0.5394 H   0  0  0  0  0  0  0  0  0  0  0  0
   -4.9939    2.0711   -1.0010 H   0  0  0  0  0  0  0  0  0  0  0  0
   -4.0842    0.2449    2.0237 H   0  0  0  0  0  0  0  0  0  0  0  0
   -5.2128   -1.8749    2.7077 H   0  0  0  0  0  0  0  0  0  0  0  0
   -6.1355   -4.2451    1.2032 H   0  0  0  0  0  0  0  0  0  0  0  0
   -7.1666   -3.2991    2.3034 H   0  0  0  0  0  0  0  0  0  0  0  0
   -7.7277   -3.5454    0.5666 H   0  0  0  0  0  0  0  0  0  0  0  0
   -7.0324   -2.1485   -1.0828 H   0  0  0  0  0  0  0  0  0  0  0  0
   -5.9015   -0.0240   -1.7689 H   0  0  0  0  0  0  0  0  0  0  0  0
   -1.4053   -0.0142   -1.0892 H   0  0  0  0  0  0  0  0  0  0  0  0
   -2.6586   -0.4129    0.0909 H   0  0  0  0  0  0  0  0  0  0  0  0
   -2.2590    1.6472    1.3469 H   0  0  0  0  0  0  0  0  0  0  0  0
   -0.9134    0.5371    1.4537 H   0  0  0  0  0  0  0  0  0  0  0  0
    3.6840    2.7809    0.0565 H   0  0  0  0  0  0  0  0  0  0  0  0
    3.0592    2.0278    1.5961 H   0  0  0  0  0  0  0  0  0  0  0  0
  1  2  1  0
  2  3  1  0
  3  4  2  0
  4  5  1  0
  5  6  2  0
  6  7  1  0
  7  8  2  0
  8  9  1  0
  9 10  1  0
  6 11  1  0
 11 12  2  0
 11 13  1  0
 13 14  1  0
 14 15  1  0
 15 16  1  0
 16 17  1  0
 17 18  1  0
 18 19  1  0
 19 20  1  0
 20 21  2  0
 21 22  1  0
 22 23  2  0
 23 24  1  0
 23 25  1  0
 25 26  2  0
 18 27  1  0
 27 28  1  0
 13 29  1  0
  8  3  1  0
 28 15  1  0
 29  5  1  0
 26 20  1  0
  1 30  1  0
  1 31  1  0
  1 32  1  0
  4 33  1  0
  7 34  1  0
 10 35  1  0
 10 36  1  0
 10 37  1  0
 13 38  1  0
 14 39  1  0
 14 40  1  0
 15 41  1  0
 16 42  1  0
 16 43  1  0
 17 44  1  0
 17 45  1  0
 19 46  1  0
 19 47  1  0
 21 48  1  0
 22 49  1  0
 24 50  1  0
 24 51  1  0
 24 52  1  0
 25 53  1  0
 26 54  1  0
 27 55  1  0
 27 56  1  0
 28 57  1  0
 28 58  1  0
 29 59  1  0
 29 60  1  0
M  END
$$$$
