@<TRIPOS>MOLECULE
*****
 60 63 0 0 0
SMALL
GASTEIGER

@<TRIPOS>ATOM
      1 C           8.1773    0.0962    0.6047 C.3     1  UNL1        0.0790
      2 O           7.3629   -1.0234    0.2974 O.3     1  UNL1       -0.4914
      3 C           5.9949   -0.8074    0.2115 C.ar    1  UNL1        0.1618
      4 C           5.4152    0.4433    0.4130 C.ar    1  UNL1       -0.0124
      5 C           4.0666    0.6617    0.3294 C.ar    1  UNL1       -0.0325
      6 C           3.2407   -0.3933    0.0342 C.ar    1  UNL1        0.0246
      7 C           3.7955   -1.6436   -0.1696 C.ar    1  UNL1       -0.0056
      8 C           5.1575   -1.8601   -0.0842 C.ar    1  UNL1        0.1622
      9 O           5.6668   -3.1318   -0.2967 O.3     1  UNL1       -0.4914
     10 C           4.8539   -4.2423   -0.6020 C.3     1  UNL1        0.0790
     11 C           1.8322    0.0935   -0.0047 C.2     1  UNL1        0.1669
     12 O           0.9082   -0.7429    0.0866 O.2     1  UNL1       -0.2917
     13 C           1.8869    1.5413   -0.1530 C.3     1  UNL1        0.0264
     14 C           0.8658    2.3878    0.4707 C.3     1  UNL1       -0.0399
     15 C          -0.5544    2.2737    0.1293 C.3     1  UNL1       -0.0381
     16 C          -0.8854    2.4844   -1.3430 C.3     1  UNL1       -0.0373
     17 C          -2.3942    2.5397   -1.4448 C.3     1  UNL1       -0.0005
     18 N          -3.0101    1.3077   -1.0123 N.3     1  UNL1       -0.2981
     19 C          -4.2660    1.5086   -0.3648 C.3     1  UNL1        0.0240
     20 C          -4.9110    0.2562    0.0902 C.ar    1  UNL1       -0.0333
     21 C          -4.7438   -0.2987    1.3413 C.ar    1  UNL1       -0.0571
     22 C          -5.3617   -1.4683    1.7301 C.ar    1  UNL1       -0.0585
     23 C          -6.1894   -2.1423    0.8609 C.ar    1  UNL1       -0.0504
     24 C          -6.8791   -3.4096    1.2353 C.3     1  UNL1       -0.0397
     25 C          -6.3739   -1.6104   -0.3945 C.ar    1  UNL1       -0.0585
     26 C          -5.7553   -0.4400   -0.7828 C.ar    1  UNL1       -0.0571
     27 C          -2.0988    0.4246   -0.3465 C.3     1  UNL1       -0.0005
     28 C          -1.3803    1.2089    0.7495 C.3     1  UNL1       -0.0373
     29 C           3.2475    1.8783    0.5042 C.3     1  UNL1       -0.0170
     30 H           7.9167    0.4934    1.5942 H       1  UNL1        0.0660
     31 H           8.0242    0.9233   -0.1364 H       1  UNL1        0.0660
     32 H           9.2242   -0.2186    0.5541 H       1  UNL1        0.0660
     33 H           6.0679    1.2625    0.6433 H       1  UNL1        0.0658
     34 H           3.1590   -2.4841   -0.4027 H       1  UNL1        0.0662
     35 H           4.3944   -4.6303    0.3453 H       1  UNL1        0.0660
     36 H           5.5246   -5.0674   -0.9684 H       1  UNL1        0.0660
     37 H           4.0871   -4.0296   -1.3575 H       1  UNL1        0.0660
     38 H           2.0819    1.7973   -1.2340 H       1  UNL1        0.0384
     39 H           0.9367    2.2428    1.6007 H       1  UNL1        0.0275
     40 H           1.2051    3.4735    0.3774 H       1  UNL1        0.0275
     41 H          -1.0117    3.2578    0.5797 H       1  UNL1        0.0302
     42 H          -0.4683    3.4439   -1.6477 H       1  UNL1        0.0280
     43 H          -0.5548    1.6372   -1.9637 H       1  UNL1        0.0280
     44 H          -2.7195    2.7214   -2.4952 H       1  UNL1        0.0427
     45 H          -2.7270    3.3858   -0.8092 H       1  UNL1        0.0427
     46 H          -4.0612    2.1544    0.5394 H       1  UNL1        0.0476
     47 H          -4.9939    2.0711   -1.0010 H       1  UNL1        0.0476
     48 H          -4.0842    0.2449    2.0237 H       1  UNL1        0.0621
     49 H          -5.2128   -1.8749    2.7077 H       1  UNL1        0.0620
     50 H          -6.1355   -4.2451    1.2032 H       1  UNL1        0.0278
     51 H          -7.1666   -3.2991    2.3034 H       1  UNL1        0.0278
     52 H          -7.7277   -3.5454    0.5666 H       1  UNL1        0.0278
     53 H          -7.0324   -2.1485   -1.0828 H       1  UNL1        0.0620
     54 H          -5.9015   -0.0240   -1.7689 H       1  UNL1        0.0621
     55 H          -1.4053   -0.0142   -1.0892 H       1  UNL1        0.0427
     56 H          -2.6586   -0.4129    0.0909 H       1  UNL1        0.0427
     57 H          -2.2590    1.6472    1.3469 H       1  UNL1        0.0280
     58 H          -0.9134    0.5371    1.4537 H       1  UNL1        0.0280
     59 H           3.6840    2.7809    0.0565 H       1  UNL1        0.0320
     60 H           3.0592    2.0278    1.5961 H       1  UNL1        0.0320
@<TRIPOS>BOND
     1     1     2    1
     2     2     3    1
     3     3     4   ar
     4     4     5   ar
     5     5     6   ar
     6     6     7   ar
     7     7     8   ar
     8     8     9    1
     9     9    10    1
    10     6    11    1
    11    11    12    2
    12    11    13    1
    13    13    14    1
    14    14    15    1
    15    15    16    1
    16    16    17    1
    17    17    18    1
    18    18    19    1
    19    19    20    1
    20    20    21   ar
    21    21    22   ar
    22    22    23   ar
    23    23    24    1
    24    23    25   ar
    25    25    26   ar
    26    18    27    1
    27    27    28    1
    28    13    29    1
    29     8     3   ar
    30    28    15    1
    31    29     5    1
    32    26    20   ar
    33     1    30    1
    34     1    31    1
    35     1    32    1
    36     4    33    1
    37     7    34    1
    38    10    35    1
    39    10    36    1
    40    10    37    1
    41    13    38    1
    42    14    39    1
    43    14    40    1
    44    15    41    1
    45    16    42    1
    46    16    43    1
    47    17    44    1
    48    17    45    1
    49    19    46    1
    50    19    47    1
    51    21    48    1
    52    22    49    1
    53    24    50    1
    54    24    51    1
    55    24    52    1
    56    25    53    1
    57    26    54    1
    58    27    55    1
    59    27    56    1
    60    28    57    1
    61    28    58    1
    62    29    59    1
    63    29    60    1
