
     RDKit          3D

 23 24  0  0  0  0  0  0  0  0999 V2000
   -1.8564    1.5071    1.5316 O   0  0  0  0  0  0  0  0  0  0  0  0
   -1.0855    1.7585    0.5739 C   0  0  0  0  0  0  0  0  0  0  0  0
   -0.4078    2.9690    0.5409 O   0  0  0  0  0  0  0  0  0  0  0  0
   -0.8900    0.7942   -0.5095 C   0  0  1  0  0  0  0  0  0  0  0  0
    0.4939    0.1946   -0.4519 C   0  0  0  0  0  0  0  0  0  0  0  0
    1.6287    0.8268   -0.7063 C   0  0  0  0  0  0  0  0  0  0  0  0
    2.9159    0.0894   -0.6044 C   0  0  0  0  0  0  0  0  0  0  0  0
    3.7747    0.6415    0.3335 O   0  0  0  0  0  0  0  0  0  0  0  0
    0.3645   -1.1603   -0.0785 O   0  0  0  0  0  0  0  0  0  0  0  0
   -0.8790   -1.2252    0.5926 C   0  0  2  0  0  0  0  0  0  0  0  0
   -1.7620   -2.3972    0.2618 C   0  0  0  0  0  0  0  0  0  0  0  0
   -2.7027   -1.3516   -0.2276 C   0  0  0  0  0  0  0  0  0  0  0  0
   -3.9433   -1.4226   -0.4850 O   0  0  0  0  0  0  0  0  0  0  0  0
   -1.6870   -0.3749   -0.2628 N   0  0  0  0  0  0  0  0  0  0  0  0
   -0.7637    3.7304    1.0997 H   0  0  0  0  0  0  0  0  0  0  0  0
   -1.0760    1.2481   -1.5026 H   0  0  0  0  0  0  0  0  0  0  0  0
    1.6528    1.8703   -0.9883 H   0  0  0  0  0  0  0  0  0  0  0  0
    2.7798   -0.9718   -0.3948 H   0  0  0  0  0  0  0  0  0  0  0  0
    3.4276    0.1711   -1.5970 H   0  0  0  0  0  0  0  0  0  0  0  0
    4.4586   -0.0699    0.5341 H   0  0  0  0  0  0  0  0  0  0  0  0
   -0.8685   -0.8944    1.6353 H   0  0  0  0  0  0  0  0  0  0  0  0
   -1.4017   -3.0977   -0.4913 H   0  0  0  0  0  0  0  0  0  0  0  0
   -2.1729   -2.8353    1.1965 H   0  0  0  0  0  0  0  0  0  0  0  0
  1  2  2  0
  2  3  1  0
  2  4  1  0
  4  5  1  0
  5  6  2  0
  6  7  1  0
  7  8  1  0
  5  9  1  0
  9 10  1  0
 10 11  1  0
 11 12  1  0
 12 13  2  0
 12 14  1  0
 14  4  1  0
 14 10  1  0
  3 15  1  0
  4 16  1  6
  6 17  1  0
  7 18  1  0
  7 19  1  0
  8 20  1  0
 10 21  1  1
 11 22  1  0
 11 23  1  0
M  END
$$$$
