@<TRIPOS>MOLECULE
*****
 23 24 0 0 0
SMALL
GASTEIGER

@<TRIPOS>ATOM
      1 O          -1.8564    1.5071    1.5316 O.2     1  UNL1       -0.2484
      2 C          -1.0855    1.7585    0.5739 C.2     1  UNL1        0.3332
      3 O          -0.4078    2.9690    0.5409 O.3     1  UNL1       -0.4790
      4 C          -0.8900    0.7942   -0.5095 C.3     1  UNL1        0.1829
      5 C           0.4939    0.1946   -0.4519 C.2     1  UNL1        0.1300
      6 C           1.6287    0.8268   -0.7063 C.2     1  UNL1       -0.0188
      7 C           2.9159    0.0894   -0.6044 C.3     1  UNL1        0.0658
      8 O           3.7747    0.6415    0.3335 O.3     1  UNL1       -0.3909
      9 O           0.3645   -1.1603   -0.0785 O.2     1  UNL1       -0.4723
     10 C          -0.8790   -1.2252    0.5926 C.3     1  UNL1        0.1784
     11 C          -1.7620   -2.3972    0.2618 C.3     1  UNL1        0.0786
     12 C          -2.7027   -1.3516   -0.2276 C.2     1  UNL1        0.2244
     13 O          -3.9433   -1.4226   -0.4850 O.2     1  UNL1       -0.2753
     14 N          -1.6870   -0.3749   -0.2628 N.am    1  UNL1       -0.2451
     15 H          -0.7637    3.7304    1.0997 H       1  UNL1        0.2951
     16 H          -1.0760    1.2481   -1.5026 H       1  UNL1        0.0700
     17 H           1.6528    1.8703   -0.9883 H       1  UNL1        0.0628
     18 H           2.7798   -0.9718   -0.3948 H       1  UNL1        0.0602
     19 H           3.4276    0.1711   -1.5970 H       1  UNL1        0.0602
     20 H           4.4586   -0.0699    0.5341 H       1  UNL1        0.2098
     21 H          -0.8685   -0.8944    1.6353 H       1  UNL1        0.0957
     22 H          -1.4017   -3.0977   -0.4913 H       1  UNL1        0.0412
     23 H          -2.1729   -2.8353    1.1965 H       1  UNL1        0.0412
@<TRIPOS>BOND
     1     1     2    2
     2     2     3    1
     3     2     4    1
     4     4     5    1
     5     5     6    2
     6     6     7    1
     7     7     8    1
     8     5     9    1
     9     9    10    1
    10    10    11    1
    11    11    12    1
    12    12    13    2
    13    12    14   am
    14    14     4    1
    15    14    10    1
    16     3    15    1
    17     4    16    1
    18     6    17    1
    19     7    18    1
    20     7    19    1
    21     8    20    1
    22    10    21    1
    23    11    22    1
    24    11    23    1
