@<TRIPOS>MOLECULE
*****
 109 113 0 0 0
SMALL
GASTEIGER

@<TRIPOS>ATOM
      1 C          -2.2533    1.6015    5.1820 C.3     1  UNL1        0.0000
      2 C          -0.9861    0.9457    4.7910 C.2     1  UNL1        0.0000
      3 O          -0.3615    0.3045    5.6731 O.2     1  UNL1        0.0000
      4 N          -0.4370    0.9982    3.4862 N.am    1  UNL1        0.0000
      5 C           0.8308    0.3155    3.1960 C.3     1  UNL1        0.0000
      6 C           0.5711   -0.8870    2.3027 C.3     1  UNL1        0.0000
      7 C          -0.0376   -0.5269    1.0276 C.2     1  UNL1        0.0000
      8 O          -0.2043    0.6741    0.7216 O.2     1  UNL1        0.0000
      9 N          -0.4496   -1.5327    0.1229 N.am    1  UNL1        0.0000
     10 C          -1.0680   -1.2416   -1.1628 C.3     1  UNL1        0.0000
     11 C          -2.3408   -0.4378   -0.9783 C.3     1  UNL1        0.0000
     12 C          -3.3518   -1.1464   -0.1227 C.3     1  UNL1        0.0000
     13 C          -3.7719   -2.4742   -0.7165 C.3     1  UNL1        0.0000
     14 O          -4.3029   -2.5777   -1.8451 O.3     1  UNL1        0.0000
     15 C          -5.0391   -2.5184   -2.8507 C.3     1  UNL1        0.0000
     16 C          -5.3893   -1.1790   -3.4698 C.ar    1  UNL1        0.0000
     17 C          -4.5245   -0.6208   -4.3880 C.ar    1  UNL1        0.0000
     18 C          -4.8651    0.5703   -4.9645 C.ar    1  UNL1        0.0000
     19 C          -6.0262    1.2349   -4.6718 C.ar    1  UNL1        0.0000
     20 C          -6.8897    0.6792   -3.7560 C.ar    1  UNL1        0.0000
     21 C          -6.5634   -0.5375   -3.1533 C.ar    1  UNL1        0.0000
     22 C          -4.5473   -0.2606    0.0643 C.3     1  UNL1        0.0000
     23 O          -5.5530   -0.8653    0.8512 O.3     1  UNL1        0.0000
     24 C          -6.5676    0.1067    0.9268 C.3     1  UNL1        0.0000
     25 C          -7.6943   -0.3995    1.7377 C.ar    1  UNL1        0.0000
     26 C          -7.6763   -0.1856    3.1184 C.ar    1  UNL1        0.0000
     27 C          -8.6913   -0.6212    3.9375 C.ar    1  UNL1        0.0000
     28 C          -9.7508   -1.2857    3.3729 C.ar    1  UNL1        0.0000
     29 C          -9.8018   -1.5138    2.0172 C.ar    1  UNL1        0.0000
     30 C          -8.7737   -1.0675    1.2216 C.ar    1  UNL1        0.0000
     31 C           1.7371    1.3073    2.5937 C.2     1  UNL1        0.0000
     32 O           1.3465    2.4719    2.3478 O.2     1  UNL1        0.0000
     33 N           3.0858    0.9454    2.2835 N.am    1  UNL1        0.0000
     34 C           4.0303    1.8876    1.6836 C.3     1  UNL1        0.0000
     35 C           5.1107    2.1397    2.7351 C.3     1  UNL1        0.0000
     36 C           6.1657    3.0921    2.2882 C.3     1  UNL1        0.0000
     37 C           6.9329    2.6777    1.0759 C.3     1  UNL1        0.0000
     38 C           7.1796    3.1779    3.4353 C.3     1  UNL1        0.0000
     39 B           4.7154    1.1067    0.4925 B       1  UNL1        0.0000
     40 O           5.2912   -0.2221    0.6824 O.3     1  UNL1        0.0000
     41 C           5.2903   -0.7846   -0.5897 C.3     1  UNL1        0.0000
     42 C           6.7153   -0.7663   -1.0896 C.3     1  UNL1        0.0000
     43 C           6.8338   -0.3731   -2.5279 C.3     1  UNL1        0.0000
     44 C           6.1449    0.9632   -2.8003 C.3     1  UNL1        0.0000
     45 C           4.8513    0.1295   -2.8937 C.3     1  UNL1        0.0000
     46 C           5.7056   -0.9836   -3.3731 C.3     1  UNL1        0.0000
     47 C           6.0644   -0.7763   -4.8421 C.3     1  UNL1        0.0000
     48 C           5.3548   -2.3775   -3.0335 C.3     1  UNL1        0.0000
     49 C           4.3845   -0.0027   -1.4704 C.3     1  UNL1        0.0000
     50 C           2.9321   -0.3840   -1.3604 C.3     1  UNL1        0.0000
     51 O           4.4802    1.3010   -0.9232 O.3     1  UNL1        0.0000
     52 H          -1.9763    2.5257    5.7537 H       1  UNL1        0.0000
     53 H          -2.8670    1.9153    4.3337 H       1  UNL1        0.0000
     54 H          -2.7937    0.9544    5.9096 H       1  UNL1        0.0000
     55 H          -0.9537    1.5297    2.7533 H       1  UNL1        0.0000
     56 H           1.1917   -0.0971    4.1641 H       1  UNL1        0.0000
     57 H          -0.0530   -1.5986    2.8793 H       1  UNL1        0.0000
     58 H           1.5713   -1.3879    2.1906 H       1  UNL1        0.0000
     59 H          -0.2952   -2.5234    0.4074 H       1  UNL1        0.0000
     60 H          -1.3338   -2.1867   -1.6468 H       1  UNL1        0.0000
     61 H          -0.4037   -0.6537   -1.8239 H       1  UNL1        0.0000
     62 H          -2.8004   -0.3478   -1.9997 H       1  UNL1        0.0000
     63 H          -2.1457    0.5855   -0.6275 H       1  UNL1        0.0000
     64 H          -2.8769   -1.3513    0.9116 H       1  UNL1        0.0000
     65 H          -2.8205   -3.1322   -0.6234 H       1  UNL1        0.0000
     66 H          -4.4610   -2.9736    0.0970 H       1  UNL1        0.0000
     67 H          -6.0611   -3.0569   -2.7885 H       1  UNL1        0.0000
     68 H          -4.6316   -3.0788   -3.7942 H       1  UNL1        0.0000
     69 H          -3.5807   -1.1056   -4.6636 H       1  UNL1        0.0000
     70 H          -4.1817    1.0049   -5.6856 H       1  UNL1        0.0000
     71 H          -6.2948    2.1863   -5.1359 H       1  UNL1        0.0000
     72 H          -7.8123    1.1848   -3.5093 H       1  UNL1        0.0000
     73 H          -7.2568   -0.9424   -2.4450 H       1  UNL1        0.0000
     74 H          -4.9960    0.0233   -0.8956 H       1  UNL1        0.0000
     75 H          -4.2652    0.6776    0.6278 H       1  UNL1        0.0000
     76 H          -6.1889    1.0370    1.4009 H       1  UNL1        0.0000
     77 H          -6.9323    0.4006   -0.0798 H       1  UNL1        0.0000
     78 H          -6.8258    0.3408    3.5297 H       1  UNL1        0.0000
     79 H          -8.6798   -0.4592    4.9964 H       1  UNL1        0.0000
     80 H         -10.5465   -1.6246    4.0403 H       1  UNL1        0.0000
     81 H         -10.6536   -2.0401    1.6073 H       1  UNL1        0.0000
     82 H          -8.7883   -1.2355    0.1435 H       1  UNL1        0.0000
     83 H           3.3678   -0.0309    2.5067 H       1  UNL1        0.0000
     84 H           3.5437    2.8248    1.3823 H       1  UNL1        0.0000
     85 H           4.6557    2.5773    3.6623 H       1  UNL1        0.0000
     86 H           5.5793    1.1729    2.9604 H       1  UNL1        0.0000
     87 H           5.7912    4.1228    2.1179 H       1  UNL1        0.0000
     88 H           6.4485    2.9338    0.1276 H       1  UNL1        0.0000
     89 H           7.8940    3.2734    1.0802 H       1  UNL1        0.0000
     90 H           7.2526    1.6321    1.1783 H       1  UNL1        0.0000
     91 H           7.9576    3.9500    3.2319 H       1  UNL1        0.0000
     92 H           6.6809    3.3127    4.4147 H       1  UNL1        0.0000
     93 H           7.6812    2.1807    3.4613 H       1  UNL1        0.0000
     94 H           4.9317   -1.8438   -0.4323 H       1  UNL1        0.0000
     95 H           7.3510   -0.0651   -0.5042 H       1  UNL1        0.0000
     96 H           7.2151   -1.7580   -0.9722 H       1  UNL1        0.0000
     97 H           7.8318   -0.4825   -2.9366 H       1  UNL1        0.0000
     98 H           6.4352    1.4342   -3.7365 H       1  UNL1        0.0000
     99 H           6.2104    1.5967   -1.9079 H       1  UNL1        0.0000
    100 H           4.0958    0.5349   -3.5582 H       1  UNL1        0.0000
    101 H           5.1481   -0.4059   -5.3699 H       1  UNL1        0.0000
    102 H           6.9174   -0.0954   -4.9870 H       1  UNL1        0.0000
    103 H           6.2533   -1.7995   -5.2777 H       1  UNL1        0.0000
    104 H           4.3311   -2.5609   -2.7036 H       1  UNL1        0.0000
    105 H           6.1285   -2.8108   -2.3319 H       1  UNL1        0.0000
    106 H           5.4809   -3.0128   -3.9619 H       1  UNL1        0.0000
    107 H           2.3800    0.0775   -2.1895 H       1  UNL1        0.0000
    108 H           2.5436    0.0647   -0.4168 H       1  UNL1        0.0000
    109 H           2.7709   -1.4743   -1.2504 H       1  UNL1        0.0000
@<TRIPOS>BOND
     1     1     2    1
     2     2     3    2
     3     2     4   am
     4     4     5    1
     5     5     6    1
     6     6     7    1
     7     7     8    2
     8     7     9   am
     9     9    10    1
    10    10    11    1
    11    11    12    1
    12    12    13    1
    13    13    14    1
    14    14    15    1
    15    15    16    1
    16    16    17   ar
    17    17    18   ar
    18    18    19   ar
    19    19    20   ar
    20    20    21   ar
    21    12    22    1
    22    22    23    1
    23    23    24    1
    24    24    25    1
    25    25    26   ar
    26    26    27   ar
    27    27    28   ar
    28    28    29   ar
    29    29    30   ar
    30     5    31    1
    31    31    32    2
    32    31    33   am
    33    33    34    1
    34    34    35    1
    35    35    36    1
    36    36    37    1
    37    36    38    1
    38    34    39    1
    39    39    40    1
    40    40    41    1
    41    41    42    1
    42    42    43    1
    43    43    44    1
    44    44    45    1
    45    45    46    1
    46    46    47    1
    47    46    48    1
    48    45    49    1
    49    49    50    1
    50    49    51    1
    51    21    16   ar
    52    30    25   ar
    53    51    39    1
    54    49    41    1
    55    46    43    1
    56     1    52    1
    57     1    53    1
    58     1    54    1
    59     4    55    1
    60     5    56    1
    61     6    57    1
    62     6    58    1
    63     9    59    1
    64    10    60    1
    65    10    61    1
    66    11    62    1
    67    11    63    1
    68    12    64    1
    69    13    65    1
    70    13    66    1
    71    15    67    1
    72    15    68    1
    73    17    69    1
    74    18    70    1
    75    19    71    1
    76    20    72    1
    77    21    73    1
    78    22    74    1
    79    22    75    1
    80    24    76    1
    81    24    77    1
    82    26    78    1
    83    27    79    1
    84    28    80    1
    85    29    81    1
    86    30    82    1
    87    33    83    1
    88    34    84    1
    89    35    85    1
    90    35    86    1
    91    36    87    1
    92    37    88    1
    93    37    89    1
    94    37    90    1
    95    38    91    1
    96    38    92    1
    97    38    93    1
    98    41    94    1
    99    42    95    1
   100    42    96    1
   101    43    97    1
   102    44    98    1
   103    44    99    1
   104    45   100    1
   105    47   101    1
   106    47   102    1
   107    47   103    1
   108    48   104    1
   109    48   105    1
   110    48   106    1
   111    50   107    1
   112    50   108    1
   113    50   109    1
