@<TRIPOS>MOLECULE
*****
 62 66 0 0 0
SMALL
GASTEIGER

@<TRIPOS>ATOM
      1 C           1.4143    2.2280   -0.9129 C.3     1  UNL1       -0.0546
      2 C           1.9755    1.3134    0.1548 C.3     1  UNL1        0.0053
      3 C           1.1996    1.6760    1.4405 C.3     1  UNL1       -0.0546
      4 C           3.3889    1.7979    0.3993 C.3     1  UNL1       -0.0546
      5 C           1.8210   -0.1038   -0.0940 C.ar    1  UNL1        0.0624
      6 C           0.6188   -0.7683   -0.2426 C.ar    1  UNL1        0.0782
      7 C          -0.7509   -0.2552   -0.1739 C.2     1  UNL1        0.2476
      8 O          -1.0204    0.7083   -0.8854 O.2     1  UNL1       -0.2701
      9 N          -1.7606   -0.7988    0.6604 N.am    1  UNL1       -0.3079
     10 C          -3.1006   -0.3549    0.8438 C.3     1  UNL1        0.0291
     11 C          -4.1720   -1.3473    0.9468 C.3     1  UNL1       -0.0218
     12 C          -4.8630   -1.6762   -0.3653 C.3     1  UNL1       -0.0456
     13 C          -5.3162   -0.4310   -1.0714 C.3     1  UNL1       -0.0402
     14 C          -6.4007    0.1788   -0.2086 C.3     1  UNL1       -0.0473
     15 C          -5.7449    0.5144    1.1201 C.3     1  UNL1       -0.0402
     16 C          -5.2977   -0.7550    1.7911 C.3     1  UNL1       -0.0456
     17 C          -4.6414    1.5172    0.9679 C.3     1  UNL1       -0.0456
     18 C          -3.5408    0.8677    0.0740 C.3     1  UNL1       -0.0218
     19 C          -4.2386    0.6129   -1.2084 C.3     1  UNL1       -0.0456
     20 C           0.8789   -2.0999   -0.4692 C.ar    1  UNL1        0.0622
     21 N           2.1893   -2.2284   -0.4564 N.ar    1  UNL1       -0.1738
     22 N           2.7576   -1.0271   -0.2308 N.ar    1  UNL1       -0.2355
     23 C           4.1891   -0.9799   -0.1948 C.ar    1  UNL1        0.0657
     24 C           4.8559   -1.0645   -1.4148 C.ar    1  UNL1       -0.0355
     25 C           6.2110   -1.0293   -1.5046 C.ar    1  UNL1       -0.0458
     26 C           6.9669   -0.9050   -0.3602 C.ar    1  UNL1        0.0590
     27 C           8.4105   -0.8521   -0.4345 C.2     1  UNL1        0.3368
     28 O           9.0935   -0.7342    0.6163 O.2     1  UNL1       -0.2451
     29 O           9.1288   -0.9257   -1.6288 O.3     1  UNL1       -0.4771
     30 C           6.3086   -0.8217    0.8531 C.ar    1  UNL1       -0.0458
     31 C           4.9282   -0.8580    0.9507 C.ar    1  UNL1       -0.0355
     32 H           2.1751    3.0448   -1.1471 H       1  UNL1        0.0239
     33 H           0.5532    2.8088   -0.5293 H       1  UNL1        0.0239
     34 H           1.2446    1.7276   -1.8877 H       1  UNL1        0.0239
     35 H           0.6857    0.7578    1.8083 H       1  UNL1        0.0239
     36 H           1.8542    2.0043    2.2468 H       1  UNL1        0.0239
     37 H           0.3925    2.4116    1.2393 H       1  UNL1        0.0239
     38 H           3.3892    2.9446    0.2979 H       1  UNL1        0.0239
     39 H           3.7304    1.6549    1.4423 H       1  UNL1        0.0239
     40 H           4.0931    1.4863   -0.3695 H       1  UNL1        0.0239
     41 H          -1.3851   -1.6577    1.1947 H       1  UNL1        0.1493
     42 H          -3.0053    0.1257    1.8879 H       1  UNL1        0.0504
     43 H          -3.8597   -2.2917    1.4353 H       1  UNL1        0.0319
     44 H          -4.3214   -2.3865   -0.9950 H       1  UNL1        0.0271
     45 H          -5.8038   -2.2091   -0.0727 H       1  UNL1        0.0271
     46 H          -5.6977   -0.7055   -2.0640 H       1  UNL1        0.0301
     47 H          -7.1653   -0.5888    0.0008 H       1  UNL1        0.0271
     48 H          -6.7928    1.0584   -0.7351 H       1  UNL1        0.0271
     49 H          -6.5339    0.9678    1.7555 H       1  UNL1        0.0301
     50 H          -6.1632   -1.4459    1.7486 H       1  UNL1        0.0271
     51 H          -4.9294   -0.6010    2.8041 H       1  UNL1        0.0271
     52 H          -4.2239    1.7145    1.9578 H       1  UNL1        0.0271
     53 H          -5.0668    2.4079    0.4556 H       1  UNL1        0.0271
     54 H          -2.7190    1.5799   -0.0036 H       1  UNL1        0.0319
     55 H          -3.5844    0.4847   -2.0958 H       1  UNL1        0.0271
     56 H          -4.8009    1.5657   -1.4528 H       1  UNL1        0.0271
     57 H           0.1855   -2.9311   -0.6315 H       1  UNL1        0.0856
     58 H           4.2886   -1.1629   -2.3469 H       1  UNL1        0.0639
     59 H           6.7194   -1.1009   -2.4711 H       1  UNL1        0.0626
     60 H           9.9270   -1.5473   -1.7164 H       1  UNL1        0.2954
     61 H           6.9080   -0.7253    1.7688 H       1  UNL1        0.0626
     62 H           4.4174   -0.7898    1.9079 H       1  UNL1        0.0639
@<TRIPOS>BOND
     1     1     2    1
     2     2     3    1
     3     2     4    1
     4     2     5    1
     5     5     6   ar
     6     6     7    1
     7     7     8    2
     8     7     9   am
     9     9    10    1
    10    10    11    1
    11    11    12    1
    12    12    13    1
    13    13    14    1
    14    14    15    1
    15    15    16    1
    16    15    17    1
    17    17    18    1
    18    18    19    1
    19     6    20   ar
    20    20    21   ar
    21    21    22   ar
    22    22    23    1
    23    23    24   ar
    24    24    25   ar
    25    25    26   ar
    26    26    27    1
    27    27    28    2
    28    27    29    1
    29    26    30   ar
    30    30    31   ar
    31    22     5   ar
    32    31    23   ar
    33    18    10    1
    34    16    11    1
    35    19    13    1
    36     1    32    1
    37     1    33    1
    38     1    34    1
    39     3    35    1
    40     3    36    1
    41     3    37    1
    42     4    38    1
    43     4    39    1
    44     4    40    1
    45     9    41    1
    46    10    42    1
    47    11    43    1
    48    12    44    1
    49    12    45    1
    50    13    46    1
    51    14    47    1
    52    14    48    1
    53    15    49    1
    54    16    50    1
    55    16    51    1
    56    17    52    1
    57    17    53    1
    58    18    54    1
    59    19    55    1
    60    19    56    1
    61    20    57    1
    62    24    58    1
    63    25    59    1
    64    29    60    1
    65    30    61    1
    66    31    62    1
