
     RDKit          3D

 44 45  0  0  0  0  0  0  0  0999 V2000
   -5.6858   -1.1377   -0.5756 C   0  0  0  0  0  0  0  0  0  0  0  0
   -5.0592   -0.5349    0.6144 C   0  0  0  0  0  0  0  0  0  0  0  0
   -5.4272   -0.8999    1.7545 O   0  0  0  0  0  0  0  0  0  0  0  0
   -4.0541    0.4440    0.4804 N   0  0  0  0  0  0  0  0  0  0  0  0
   -3.4065    1.0676    1.6371 C   0  0  0  0  0  0  0  0  0  0  0  0
   -1.9513    0.6240    1.7323 C   0  0  0  0  0  0  0  0  0  0  0  0
   -1.4812    0.4207    0.3004 C   0  0  0  0  0  0  0  0  0  0  0  0
   -0.0905    0.0644    0.1695 C   0  0  0  0  0  0  0  0  0  0  0  0
    0.2666   -1.3039    0.1701 C   0  0  0  0  0  0  0  0  0  0  0  0
    1.5280   -1.7805    0.0851 C   0  0  0  0  0  0  0  0  0  0  0  0
    2.5686   -0.9032   -0.0104 C   0  0  0  0  0  0  0  0  0  0  0  0
    3.9254   -1.4325   -0.1008 C   0  0  0  0  0  0  0  0  0  0  0  0
    4.0668   -2.6812   -0.0866 O   0  0  0  0  0  0  0  0  0  0  0  0
    5.0657   -0.6170   -0.2019 N   0  0  0  0  0  0  0  0  0  0  0  0
    6.3637   -1.2031   -0.2868 C   0  0  0  0  0  0  0  0  0  0  0  0
    6.6561   -2.4093   -0.2845 N   0  0  0  0  0  0  0  0  0  0  0  0
    7.4692   -0.2724   -0.3876 N   0  0  0  0  0  0  0  0  0  0  0  0
    2.2766    0.4428   -0.0159 C   0  0  0  0  0  0  0  0  0  0  0  0
    0.9601    0.9341    0.0724 C   0  0  0  0  0  0  0  0  0  0  0  0
    0.7713    2.3684    0.0306 C   0  0  0  0  0  0  0  0  0  0  0  0
    0.0839    2.8742   -1.0421 F   0  0  0  0  0  0  0  0  0  0  0  0
    2.0252    3.0078   -0.1419 F   0  0  0  0  0  0  0  0  0  0  0  0
    0.3839    2.9421    1.2290 F   0  0  0  0  0  0  0  0  0  0  0  0
   -2.1653    1.2956   -0.6772 C   0  0  0  0  0  0  0  0  0  0  0  0
   -3.6514    0.8438   -0.8459 C   0  0  0  0  0  0  0  0  0  0  0  0
   -5.0907   -2.0511   -0.8422 H   0  0  0  0  0  0  0  0  0  0  0  0
   -6.7406   -1.4344   -0.4045 H   0  0  0  0  0  0  0  0  0  0  0  0
   -5.6806   -0.4796   -1.4585 H   0  0  0  0  0  0  0  0  0  0  0  0
   -3.9867    0.7430    2.5255 H   0  0  0  0  0  0  0  0  0  0  0  0
   -3.4997    2.1723    1.5936 H   0  0  0  0  0  0  0  0  0  0  0  0
   -1.3483    1.2710    2.3456 H   0  0  0  0  0  0  0  0  0  0  0  0
   -1.9943   -0.3542    2.2952 H   0  0  0  0  0  0  0  0  0  0  0  0
   -2.0656   -0.5590    0.0913 H   0  0  0  0  0  0  0  0  0  0  0  0
   -0.5229   -2.0564    0.2453 H   0  0  0  0  0  0  0  0  0  0  0  0
    1.7307   -2.8388    0.0910 H   0  0  0  0  0  0  0  0  0  0  0  0
    4.9293    0.4199   -0.2123 H   0  0  0  0  0  0  0  0  0  0  0  0
    6.1270   -3.2515   -0.2284 H   0  0  0  0  0  0  0  0  0  0  0  0
    7.4430    0.4161   -1.1494 H   0  0  0  0  0  0  0  0  0  0  0  0
    8.2145   -0.3634    0.3170 H   0  0  0  0  0  0  0  0  0  0  0  0
    3.0951    1.1338   -0.0909 H   0  0  0  0  0  0  0  0  0  0  0  0
   -1.7744    1.1377   -1.6754 H   0  0  0  0  0  0  0  0  0  0  0  0
   -2.3338    2.3363   -0.3503 H   0  0  0  0  0  0  0  0  0  0  0  0
   -4.2500    1.6411   -1.2881 H   0  0  0  0  0  0  0  0  0  0  0  0
   -3.6906   -0.0365   -1.5283 H   0  0  0  0  0  0  0  0  0  0  0  0
  1  2  1  0
  2  3  2  0
  2  4  1  0
  4  5  1  0
  5  6  1  0
  6  7  1  0
  7  8  1  0
  8  9  2  0
  9 10  1  0
 10 11  2  0
 11 12  1  0
 12 13  2  0
 12 14  1  0
 14 15  1  0
 15 16  2  3
 15 17  1  0
 11 18  1  0
 18 19  2  0
 19 20  1  0
 20 21  1  0
 20 22  1  0
 20 23  1  0
  7 24  1  0
 24 25  1  0
 25  4  1  0
 19  8  1  0
  1 26  1  0
  1 27  1  0
  1 28  1  0
  5 29  1  0
  5 30  1  0
  6 31  1  0
  6 32  1  0
  7 33  1  0
  9 34  1  0
 10 35  1  0
 14 36  1  0
 16 37  1  0
 17 38  1  0
 17 39  1  0
 18 40  1  0
 24 41  1  0
 24 42  1  0
 25 43  1  0
 25 44  1  0
M  END
$$$$
