@<TRIPOS>MOLECULE
*****
 44 45 0 0 0
SMALL
GASTEIGER

@<TRIPOS>ATOM
      1 C          -5.6858   -1.1377   -0.5756 C.3     1  UNL1        0.0124
      2 C          -5.0592   -0.5349    0.6144 C.2     1  UNL1        0.2125
      3 O          -5.4272   -0.8999    1.7545 O.2     1  UNL1       -0.2759
      4 N          -4.0541    0.4440    0.4804 N.am    1  UNL1       -0.3017
      5 C          -3.4065    1.0676    1.6371 C.3     1  UNL1        0.0152
      6 C          -1.9513    0.6240    1.7323 C.3     1  UNL1       -0.0302
      7 C          -1.4812    0.4207    0.3004 C.3     1  UNL1       -0.0125
      8 C          -0.0905    0.0644    0.1695 C.ar    1  UNL1       -0.0325
      9 C           0.2666   -1.3039    0.1701 C.ar    1  UNL1       -0.0570
     10 C           1.5280   -1.7805    0.0851 C.ar    1  UNL1       -0.0479
     11 C           2.5686   -0.9032   -0.0104 C.ar    1  UNL1        0.0536
     12 C           3.9254   -1.4325   -0.1008 C.2     1  UNL1        0.3066
     13 O           4.0668   -2.6812   -0.0866 O.2     1  UNL1       -0.2516
     14 N           5.0657   -0.6170   -0.2019 N.am    1  UNL1       -0.1709
     15 C           6.3637   -1.2031   -0.2868 C.2     1  UNL1        0.3751
     16 N           6.6561   -2.4093   -0.2845 N.pl3   1  UNL1       -0.1313
     17 N           7.4692   -0.2724   -0.3876 N.pl3   1  UNL1       -0.2906
     18 C           2.2766    0.4428   -0.0159 C.ar    1  UNL1       -0.0363
     19 C           0.9601    0.9341    0.0724 C.ar    1  UNL1        0.0590
     20 C           0.7713    2.3684    0.0306 C.3     1  UNL1        0.4177
     21 F           0.0839    2.8742   -1.0421 F       1  UNL1       -0.1659
     22 F           2.0252    3.0078   -0.1419 F       1  UNL1       -0.1659
     23 F           0.3839    2.9421    1.2290 F       1  UNL1       -0.1659
     24 C          -2.1653    1.2956   -0.6772 C.3     1  UNL1       -0.0302
     25 C          -3.6514    0.8438   -0.8459 C.3     1  UNL1        0.0152
     26 H          -5.0907   -2.0511   -0.8422 H       1  UNL1        0.0323
     27 H          -6.7406   -1.4344   -0.4045 H       1  UNL1        0.0323
     28 H          -5.6806   -0.4796   -1.4585 H       1  UNL1        0.0323
     29 H          -3.9867    0.7430    2.5255 H       1  UNL1        0.0465
     30 H          -3.4997    2.1723    1.5936 H       1  UNL1        0.0465
     31 H          -1.3483    1.2710    2.3456 H       1  UNL1        0.0286
     32 H          -1.9943   -0.3542    2.2952 H       1  UNL1        0.0286
     33 H          -2.0656   -0.5590    0.0913 H       1  UNL1        0.0350
     34 H          -0.5229   -2.0564    0.2453 H       1  UNL1        0.0621
     35 H           1.7307   -2.8388    0.0910 H       1  UNL1        0.0626
     36 H           4.9293    0.4199   -0.2123 H       1  UNL1        0.2545
     37 H           6.1270   -3.2515   -0.2284 H       1  UNL1        0.3060
     38 H           7.4430    0.4161   -1.1494 H       1  UNL1        0.2545
     39 H           8.2145   -0.3634    0.3170 H       1  UNL1        0.2545
     40 H           3.0951    1.1338   -0.0909 H       1  UNL1        0.0631
     41 H          -1.7744    1.1377   -1.6754 H       1  UNL1        0.0286
     42 H          -2.3338    2.3363   -0.3503 H       1  UNL1        0.0286
     43 H          -4.2500    1.6411   -1.2881 H       1  UNL1        0.0465
     44 H          -3.6906   -0.0365   -1.5283 H       1  UNL1        0.0465
@<TRIPOS>BOND
     1     1     2    1
     2     2     3    2
     3     2     4   am
     4     4     5    1
     5     5     6    1
     6     6     7    1
     7     7     8    1
     8     8     9   ar
     9     9    10   ar
    10    10    11   ar
    11    11    12    1
    12    12    13    2
    13    12    14   am
    14    14    15    1
    15    15    16    2
    16    15    17    1
    17    11    18   ar
    18    18    19   ar
    19    19    20    1
    20    20    21    1
    21    20    22    1
    22    20    23    1
    23     7    24    1
    24    24    25    1
    25    25     4    1
    26    19     8   ar
    27     1    26    1
    28     1    27    1
    29     1    28    1
    30     5    29    1
    31     5    30    1
    32     6    31    1
    33     6    32    1
    34     7    33    1
    35     9    34    1
    36    10    35    1
    37    14    36    1
    38    16    37    1
    39    17    38    1
    40    17    39    1
    41    18    40    1
    42    24    41    1
    43    24    42    1
    44    25    43    1
    45    25    44    1
