
     RDKit          3D

 45 47  0  0  0  0  0  0  0  0999 V2000
    9.6134    1.0625    1.2714 N   0  0  0  0  0  0  0  0  0  0  0  0
    8.5243    0.8494    0.9388 C   0  0  0  0  0  0  0  0  0  0  0  0
    7.1632    0.6068    0.5196 C   0  0  0  0  0  0  0  0  0  0  0  0
    6.3095   -0.1749    1.2420 C   0  0  0  0  0  0  0  0  0  0  0  0
    5.0276   -0.4006    0.8430 N   0  0  0  0  0  0  0  0  0  0  0  0
    4.5823    0.1568   -0.2907 C   0  0  0  0  0  0  0  0  0  0  0  0
    3.2074   -0.0795   -0.7280 C   0  0  0  0  0  0  0  0  0  0  0  0
    2.7640    0.4305   -1.7861 O   0  0  0  0  0  0  0  0  0  0  0  0
    2.3454   -0.8980    0.0467 N   0  0  0  0  0  0  0  0  0  0  0  0
    1.0124   -1.1390   -0.3587 C   0  0  0  0  0  0  0  0  0  0  0  0
    0.7557   -2.2209   -1.1673 C   0  0  0  0  0  0  0  0  0  0  0  0
   -0.5415   -2.4429   -1.5530 C   0  0  0  0  0  0  0  0  0  0  0  0
   -1.5546   -1.6061   -1.1417 C   0  0  0  0  0  0  0  0  0  0  0  0
   -2.8179   -1.8638   -1.5480 F   0  0  0  0  0  0  0  0  0  0  0  0
   -1.3073   -0.5020   -0.3191 C   0  0  0  0  0  0  0  0  0  0  0  0
   -2.4549    0.3641    0.0960 C   0  0  2  0  0  0  0  0  0  0  0  0
   -1.8337    1.5981    0.7881 C   0  0  0  0  0  0  0  0  0  0  0  0
   -1.0318    2.2022   -0.1488 F   0  0  0  0  0  0  0  0  0  0  0  0
   -3.3446   -0.3636    1.0493 C   0  0  0  0  0  0  0  0  0  0  0  0
   -4.7640   -0.3534    0.6459 C   0  0  1  0  0  0  0  0  0  0  0  0
   -5.7112   -0.5100    1.8353 C   0  0  0  0  0  0  0  0  0  0  0  0
   -7.0029   -0.4839    1.3194 F   0  0  0  0  0  0  0  0  0  0  0  0
   -5.5491   -1.7072    2.4599 F   0  0  0  0  0  0  0  0  0  0  0  0
   -5.5552    0.5810    2.6587 F   0  0  0  0  0  0  0  0  0  0  0  0
   -5.0710    0.8145   -0.0744 O   0  0  0  0  0  0  0  0  0  0  0  0
   -4.3079    1.1110   -1.1850 C   0  0  0  0  0  0  0  0  0  0  0  0
   -4.9075    1.6461   -2.3852 N   0  0  0  0  0  0  0  0  0  0  0  0
   -3.0591    0.8911   -1.0941 N   0  0  0  0  0  0  0  0  0  0  0  0
   -0.0189   -0.2845    0.0620 C   0  0  0  0  0  0  0  0  0  0  0  0
    5.4264    0.9478   -1.0333 C   0  0  0  0  0  0  0  0  0  0  0  0
    4.8648    1.6911   -2.5262 Cl  0  0  0  0  0  0  0  0  0  0  0  0
    6.7222    1.1855   -0.6448 C   0  0  0  0  0  0  0  0  0  0  0  0
    6.6339   -0.6445    2.1674 H   0  0  0  0  0  0  0  0  0  0  0  0
    2.7282   -1.3255    0.9402 H   0  0  0  0  0  0  0  0  0  0  0  0
    1.5489   -2.8942   -1.5022 H   0  0  0  0  0  0  0  0  0  0  0  0
   -0.7480   -3.2987   -2.1932 H   0  0  0  0  0  0  0  0  0  0  0  0
   -2.6468    2.3387    1.0054 H   0  0  0  0  0  0  0  0  0  0  0  0
   -1.2846    1.3538    1.6857 H   0  0  0  0  0  0  0  0  0  0  0  0
   -3.1929    0.0744    2.0773 H   0  0  0  0  0  0  0  0  0  0  0  0
   -2.9598   -1.4308    1.1239 H   0  0  0  0  0  0  0  0  0  0  0  0
   -4.9431   -1.2476   -0.0145 H   0  0  0  0  0  0  0  0  0  0  0  0
   -5.0888    0.9519   -3.1428 H   0  0  0  0  0  0  0  0  0  0  0  0
   -5.1392    2.6575   -2.4774 H   0  0  0  0  0  0  0  0  0  0  0  0
    0.2411    0.5505    0.7003 H   0  0  0  0  0  0  0  0  0  0  0  0
    7.3655    1.8060   -1.2384 H   0  0  0  0  0  0  0  0  0  0  0  0
  1  2  3  0
  2  3  1  0
  3  4  2  0
  4  5  1  0
  5  6  2  0
  6  7  1  0
  7  8  2  0
  7  9  1  0
  9 10  1  0
 10 11  2  0
 11 12  1  0
 12 13  2  0
 13 14  1  0
 13 15  1  0
 15 16  1  0
 16 17  1  1
 17 18  1  0
 16 19  1  0
 19 20  1  0
 20 21  1  0
 21 22  1  0
 21 23  1  0
 21 24  1  0
 20 25  1  0
 25 26  1  0
 26 27  1  0
 26 28  2  0
 15 29  2  0
  6 30  1  0
 30 31  1  0
 30 32  2  0
 32  3  1  0
 29 10  1  0
 28 16  1  0
  4 33  1  0
  9 34  1  0
 11 35  1  0
 12 36  1  0
 17 37  1  0
 17 38  1  0
 19 39  1  0
 19 40  1  0
 20 41  1  6
 27 42  1  0
 27 43  1  0
 29 44  1  0
 32 45  1  0
M  END
$$$$
