@<TRIPOS>MOLECULE
*****
 45 47 0 0 0
SMALL
GASTEIGER

@<TRIPOS>ATOM
      1 N           9.6134    1.0625    1.2714 N.1     1  UNL1       -0.1908
      2 C           8.5243    0.8494    0.9388 C.1     1  UNL1        0.1007
      3 C           7.1632    0.6068    0.5196 C.ar    1  UNL1        0.0712
      4 C           6.3095   -0.1749    1.2420 C.ar    1  UNL1        0.0459
      5 N           5.0276   -0.4006    0.8430 N.ar    1  UNL1       -0.2476
      6 C           4.5823    0.1568   -0.2907 C.ar    1  UNL1        0.1439
      7 C           3.2074   -0.0795   -0.7280 C.2     1  UNL1        0.2680
      8 O           2.7640    0.4305   -1.7861 O.2     1  UNL1       -0.2681
      9 N           2.3454   -0.8980    0.0467 N.am    1  UNL1       -0.2802
     10 C           1.0124   -1.1390   -0.3587 C.ar    1  UNL1        0.0342
     11 C           0.7557   -2.2209   -1.1673 C.ar    1  UNL1       -0.0377
     12 C          -0.5415   -2.4429   -1.5530 C.ar    1  UNL1       -0.0243
     13 C          -1.5546   -1.6061   -1.1417 C.ar    1  UNL1        0.1291
     14 F          -2.8179   -1.8638   -1.5480 F       1  UNL1       -0.2051
     15 C          -1.3073   -0.5020   -0.3191 C.ar    1  UNL1        0.0196
     16 C          -2.4549    0.3641    0.0960 C.3     1  UNL1        0.1258
     17 C          -1.8337    1.5981    0.7881 C.3     1  UNL1        0.1196
     18 F          -1.0318    2.2022   -0.1488 F       1  UNL1       -0.2462
     19 C          -3.3446   -0.3636    1.0493 C.3     1  UNL1        0.0251
     20 C          -4.7640   -0.3534    0.6459 C.3     1  UNL1        0.1998
     21 C          -5.7112   -0.5100    1.8353 C.3     1  UNL1        0.4266
     22 F          -7.0029   -0.4839    1.3194 F       1  UNL1       -0.1669
     23 F          -5.5491   -1.7072    2.4599 F       1  UNL1       -0.1669
     24 F          -5.5552    0.5810    2.6587 F       1  UNL1       -0.1669
     25 O          -5.0710    0.8145   -0.0744 O.2     1  UNL1       -0.4534
     26 C          -4.3079    1.1110   -1.1850 C.2     1  UNL1        0.2766
     27 N          -4.9075    1.6461   -2.3852 N.pl3   1  UNL1       -0.3134
     28 N          -3.0591    0.8911   -1.0941 N.2     1  UNL1       -0.2228
     29 C          -0.0189   -0.2845    0.0620 C.ar    1  UNL1       -0.0322
     30 C           5.4264    0.9478   -1.0333 C.ar    1  UNL1        0.0726
     31 CL          4.8648    1.6911   -2.5262 Cl      1  UNL1       -0.0811
     32 C           6.7222    1.1855   -0.6448 C.ar    1  UNL1       -0.0223
     33 H           6.6339   -0.6445    2.1674 H       1  UNL1        0.0843
     34 H           2.7282   -1.3255    0.9402 H       1  UNL1        0.1552
     35 H           1.5489   -2.8942   -1.5022 H       1  UNL1        0.0637
     36 H          -0.7480   -3.2987   -2.1932 H       1  UNL1        0.0647
     37 H          -2.6468    2.3387    1.0054 H       1  UNL1        0.0643
     38 H          -1.2846    1.3538    1.6857 H       1  UNL1        0.0643
     39 H          -3.1929    0.0744    2.0773 H       1  UNL1        0.0331
     40 H          -2.9598   -1.4308    1.1239 H       1  UNL1        0.0331
     41 H          -4.9431   -1.2476   -0.0145 H       1  UNL1        0.0826
     42 H          -5.0888    0.9519   -3.1428 H       1  UNL1        0.1466
     43 H          -5.1392    2.6575   -2.4774 H       1  UNL1        0.1466
     44 H           0.2411    0.5505    0.7003 H       1  UNL1        0.0640
     45 H           7.3655    1.8060   -1.2384 H       1  UNL1        0.0646
@<TRIPOS>BOND
     1     1     2    3
     2     2     3    1
     3     3     4   ar
     4     4     5   ar
     5     5     6   ar
     6     6     7    1
     7     7     8    2
     8     7     9   am
     9     9    10    1
    10    10    11   ar
    11    11    12   ar
    12    12    13   ar
    13    13    14    1
    14    13    15   ar
    15    15    16    1
    16    16    17    1
    17    17    18    1
    18    16    19    1
    19    19    20    1
    20    20    21    1
    21    21    22    1
    22    21    23    1
    23    21    24    1
    24    20    25    1
    25    25    26    1
    26    26    27    1
    27    26    28    2
    28    15    29   ar
    29     6    30   ar
    30    30    31    1
    31    30    32   ar
    32    32     3   ar
    33    29    10   ar
    34    28    16    1
    35     4    33    1
    36     9    34    1
    37    11    35    1
    38    12    36    1
    39    17    37    1
    40    17    38    1
    41    19    39    1
    42    19    40    1
    43    20    41    1
    44    27    42    1
    45    27    43    1
    46    29    44    1
    47    32    45    1
