@<TRIPOS>MOLECULE
*****
 95 100 0 0 0
SMALL
GASTEIGER

@<TRIPOS>ATOM
      1 O           6.2344    2.0583   -2.2594 O.2     1  UNL1       -0.2737
      2 C           7.4157    1.8333   -2.6413 C.2     1  UNL1        0.2354
      3 C           8.4560    1.2720   -1.7444 C.3     1  UNL1        0.0259
      4 C           7.7999    1.1236   -0.3564 C.3     1  UNL1       -0.0447
      5 C           8.7616    0.5737    0.6251 C.3     1  UNL1       -0.0526
      6 C           8.2134    0.3375    1.9690 C.3     1  UNL1       -0.0526
      7 C           7.6853    1.4330    2.7852 C.3     1  UNL1       -0.0448
      8 C           6.5232    2.2272    2.3709 C.3     1  UNL1        0.0243
      9 C           5.3124    1.3839    2.1546 C.2     1  UNL1        0.2172
     10 O           5.3004    0.1511    2.3896 O.2     1  UNL1       -0.2755
     11 N           4.1451    2.0289    1.6636 N.am    1  UNL1       -0.2855
     12 C           3.0085    1.2082    1.4707 C.ar    1  UNL1        0.0334
     13 C           2.0875    1.0683    2.4847 C.ar    1  UNL1       -0.0401
     14 C           0.9832    0.2584    2.3359 C.ar    1  UNL1       -0.0520
     15 C           0.7462   -0.4473    1.1739 C.ar    1  UNL1        0.0080
     16 C          -0.4487   -1.3304    1.0128 C.3     1  UNL1        0.1863
     17 O          -0.0326   -2.5812    0.5086 O.3     1  UNL1       -0.3392
     18 C          -1.0211   -3.4774    0.9724 C.3     1  UNL1        0.0893
     19 C          -0.8434   -4.7992    0.3696 C.ar    1  UNL1       -0.0187
     20 C          -0.5584   -4.9357   -0.9703 C.ar    1  UNL1       -0.0558
     21 C          -0.3817   -6.1837   -1.5790 C.ar    1  UNL1       -0.0561
     22 C          -0.4941   -7.3267   -0.8204 C.ar    1  UNL1       -0.0222
     23 C          -0.3024   -8.6361   -1.4793 C.3     1  UNL1        0.0692
     24 O          -1.5609   -9.0614   -1.9439 O.3     1  UNL1       -0.3904
     25 C          -0.7790   -7.2097    0.5237 C.ar    1  UNL1       -0.0561
     26 C          -0.9511   -5.9600    1.1091 C.ar    1  UNL1       -0.0558
     27 C          -2.3891   -2.8941    0.8756 C.3     1  UNL1        0.0050
     28 C          -2.4767   -1.6234    0.0922 C.3     1  UNL1        0.0741
     29 C          -3.0038   -1.9253   -1.3062 C.3     1  UNL1        0.0291
     30 S          -3.1333   -0.4544   -2.3280 S.3     1  UNL1       -0.0646
     31 C          -4.3404    0.7141   -1.7590 C.ar    1  UNL1        0.2581
     32 N          -5.6471    0.8113   -2.0413 N.ar    1  UNL1       -0.2027
     33 C          -6.1835    1.8618   -1.3824 C.ar    1  UNL1        0.1181
     34 C          -7.5721    2.3233   -1.4092 C.ar    1  UNL1        0.0041
     35 C          -8.2095    2.7168   -2.5660 C.ar    1  UNL1       -0.0524
     36 C          -9.5364    3.1581   -2.5804 C.ar    1  UNL1       -0.0611
     37 C         -10.2562    3.2100   -1.4001 C.ar    1  UNL1       -0.0617
     38 C          -9.6236    2.8182   -0.2432 C.ar    1  UNL1       -0.0611
     39 C          -8.3127    2.3853   -0.2480 C.ar    1  UNL1       -0.0524
     40 C          -5.1398    2.4171   -0.6716 C.ar    1  UNL1        0.1639
     41 C          -5.2208    3.5738    0.1916 C.ar    1  UNL1        0.0195
     42 C          -4.9642    3.4494    1.5298 C.ar    1  UNL1       -0.0510
     43 C          -5.0302    4.5381    2.3958 C.ar    1  UNL1       -0.0611
     44 C          -5.3683    5.7623    1.8454 C.ar    1  UNL1       -0.0617
     45 C          -5.6346    5.9283    0.4971 C.ar    1  UNL1       -0.0611
     46 C          -5.5518    4.7980   -0.3179 C.ar    1  UNL1       -0.0510
     47 O          -4.0606    1.7049   -0.9222 O.2     1  UNL1       -0.4300
     48 O          -1.3524   -0.8436    0.0835 O.3     1  UNL1       -0.3430
     49 C           1.6789   -0.2986    0.1598 C.ar    1  UNL1       -0.0520
     50 C           2.7868    0.5103    0.3003 C.ar    1  UNL1       -0.0401
     51 N           7.7059    2.1557   -4.0132 N.am    1  UNL1       -0.1975
     52 O           6.7784    2.6686   -4.8485 O.3     1  UNL1       -0.2952
     53 H           9.2515    2.0286   -1.6066 H       1  UNL1        0.0359
     54 H           8.8346    0.2943   -2.1045 H       1  UNL1        0.0359
     55 H           6.9588    0.4338   -0.4921 H       1  UNL1        0.0270
     56 H           7.5459    2.1567   -0.0954 H       1  UNL1        0.0270
     57 H           9.6639    1.2475    0.7480 H       1  UNL1        0.0265
     58 H           9.2197   -0.3981    0.2756 H       1  UNL1        0.0265
     59 H           7.4487   -0.5083    1.8561 H       1  UNL1        0.0265
     60 H           9.0493   -0.2206    2.5480 H       1  UNL1        0.0265
     61 H           7.3887    0.9546    3.7917 H       1  UNL1        0.0270
     62 H           8.4982    2.1439    3.1367 H       1  UNL1        0.0270
     63 H           6.2290    2.8302    3.3165 H       1  UNL1        0.0358
     64 H           6.5867    2.9825    1.6192 H       1  UNL1        0.0358
     65 H           4.1620    3.0380    1.4708 H       1  UNL1        0.1548
     66 H           2.2374    1.6023    3.4060 H       1  UNL1        0.0636
     67 H           0.2614    0.1555    3.1447 H       1  UNL1        0.0622
     68 H          -0.9069   -1.4933    1.9873 H       1  UNL1        0.0965
     69 H          -0.7866   -3.5657    2.0766 H       1  UNL1        0.0648
     70 H          -0.4495   -4.0952   -1.6395 H       1  UNL1        0.0621
     71 H          -0.1608   -6.2675   -2.6222 H       1  UNL1        0.0621
     72 H           0.4211   -8.5620   -2.3352 H       1  UNL1        0.0607
     73 H           0.0824   -9.3441   -0.7142 H       1  UNL1        0.0607
     74 H          -2.2151   -8.8037   -1.2315 H       1  UNL1        0.2098
     75 H          -0.8746   -8.0798    1.1501 H       1  UNL1        0.0621
     76 H          -1.1704   -5.9017    2.1506 H       1  UNL1        0.0621
     77 H          -2.8881   -2.8020    1.8860 H       1  UNL1        0.0319
     78 H          -3.0396   -3.6565    0.3532 H       1  UNL1        0.0319
     79 H          -3.2749   -1.0015    0.6036 H       1  UNL1        0.0606
     80 H          -3.9837   -2.4720   -1.2328 H       1  UNL1        0.0406
     81 H          -2.3273   -2.6367   -1.8092 H       1  UNL1        0.0406
     82 H          -7.6285    2.6695   -3.4882 H       1  UNL1        0.0624
     83 H         -10.0017    3.4574   -3.5049 H       1  UNL1        0.0618
     84 H         -11.2831    3.5541   -1.4288 H       1  UNL1        0.0618
     85 H         -10.1919    2.8620    0.6757 H       1  UNL1        0.0618
     86 H          -7.8517    2.0853    0.6910 H       1  UNL1        0.0624
     87 H          -4.6978    2.5044    1.9880 H       1  UNL1        0.0625
     88 H          -4.8306    4.4418    3.4406 H       1  UNL1        0.0618
     89 H          -5.4254    6.6204    2.4982 H       1  UNL1        0.0618
     90 H          -5.8924    6.8947    0.1127 H       1  UNL1        0.0618
     91 H          -5.7638    4.9406   -1.3802 H       1  UNL1        0.0625
     92 H           1.5117   -0.8438   -0.7601 H       1  UNL1        0.0622
     93 H           3.5195    0.6256   -0.5018 H       1  UNL1        0.0636
     94 H           8.6630    1.9948   -4.3947 H       1  UNL1        0.1822
     95 H           6.8684    3.6594   -4.8278 H       1  UNL1        0.2414
@<TRIPOS>BOND
     1     1     2    2
     2     2     3    1
     3     3     4    1
     4     4     5    1
     5     5     6    1
     6     6     7    1
     7     7     8    1
     8     8     9    1
     9     9    10    2
    10     9    11   am
    11    11    12    1
    12    12    13   ar
    13    13    14   ar
    14    14    15   ar
    15    15    16    1
    16    16    17    1
    17    17    18    1
    18    18    19    1
    19    19    20   ar
    20    20    21   ar
    21    21    22   ar
    22    22    23    1
    23    23    24    1
    24    22    25   ar
    25    25    26   ar
    26    18    27    1
    27    27    28    1
    28    28    29    1
    29    29    30    1
    30    30    31    1
    31    31    32   ar
    32    32    33   ar
    33    33    34    1
    34    34    35   ar
    35    35    36   ar
    36    36    37   ar
    37    37    38   ar
    38    38    39   ar
    39    33    40   ar
    40    40    41    1
    41    41    42   ar
    42    42    43   ar
    43    43    44   ar
    44    44    45   ar
    45    45    46   ar
    46    40    47   ar
    47    28    48    1
    48    15    49   ar
    49    49    50   ar
    50     2    51   am
    51    51    52    1
    52    50    12   ar
    53    48    16    1
    54    26    19   ar
    55    47    31   ar
    56    39    34   ar
    57    46    41   ar
    58     3    53    1
    59     3    54    1
    60     4    55    1
    61     4    56    1
    62     5    57    1
    63     5    58    1
    64     6    59    1
    65     6    60    1
    66     7    61    1
    67     7    62    1
    68     8    63    1
    69     8    64    1
    70    11    65    1
    71    13    66    1
    72    14    67    1
    73    16    68    1
    74    18    69    1
    75    20    70    1
    76    21    71    1
    77    23    72    1
    78    23    73    1
    79    24    74    1
    80    25    75    1
    81    26    76    1
    82    27    77    1
    83    27    78    1
    84    28    79    1
    85    29    80    1
    86    29    81    1
    87    35    82    1
    88    36    83    1
    89    37    84    1
    90    38    85    1
    91    39    86    1
    92    42    87    1
    93    43    88    1
    94    44    89    1
    95    45    90    1
    96    46    91    1
    97    49    92    1
    98    50    93    1
    99    51    94    1
   100    52    95    1
