
     RDKit          3D

 95100  0  0  0  0  0  0  0  0999 V2000
    6.2344    2.0583   -2.2594 O   0  0  0  0  0  0  0  0  0  0  0  0
    7.4157    1.8333   -2.6413 C   0  0  0  0  0  0  0  0  0  0  0  0
    8.4560    1.2720   -1.7444 C   0  0  0  0  0  0  0  0  0  0  0  0
    7.7999    1.1236   -0.3564 C   0  0  0  0  0  0  0  0  0  0  0  0
    8.7616    0.5737    0.6251 C   0  0  0  0  0  0  0  0  0  0  0  0
    8.2134    0.3375    1.9690 C   0  0  0  0  0  0  0  0  0  0  0  0
    7.6853    1.4330    2.7852 C   0  0  0  0  0  0  0  0  0  0  0  0
    6.5232    2.2272    2.3709 C   0  0  0  0  0  0  0  0  0  0  0  0
    5.3124    1.3839    2.1546 C   0  0  0  0  0  0  0  0  0  0  0  0
    5.3004    0.1511    2.3896 O   0  0  0  0  0  0  0  0  0  0  0  0
    4.1451    2.0289    1.6636 N   0  0  0  0  0  0  0  0  0  0  0  0
    3.0085    1.2082    1.4707 C   0  0  0  0  0  0  0  0  0  0  0  0
    2.0875    1.0683    2.4847 C   0  0  0  0  0  0  0  0  0  0  0  0
    0.9832    0.2584    2.3359 C   0  0  0  0  0  0  0  0  0  0  0  0
    0.7462   -0.4473    1.1739 C   0  0  0  0  0  0  0  0  0  0  0  0
   -0.4487   -1.3304    1.0128 C   0  0  2  0  0  0  0  0  0  0  0  0
   -0.0326   -2.5812    0.5086 O   0  0  0  0  0  0  0  0  0  0  0  0
   -1.0211   -3.4774    0.9724 C   0  0  2  0  0  0  0  0  0  0  0  0
   -0.8434   -4.7992    0.3696 C   0  0  0  0  0  0  0  0  0  0  0  0
   -0.5584   -4.9357   -0.9703 C   0  0  0  0  0  0  0  0  0  0  0  0
   -0.3817   -6.1837   -1.5790 C   0  0  0  0  0  0  0  0  0  0  0  0
   -0.4941   -7.3267   -0.8204 C   0  0  0  0  0  0  0  0  0  0  0  0
   -0.3024   -8.6361   -1.4793 C   0  0  0  0  0  0  0  0  0  0  0  0
   -1.5609   -9.0614   -1.9439 O   0  0  0  0  0  0  0  0  0  0  0  0
   -0.7790   -7.2097    0.5237 C   0  0  0  0  0  0  0  0  0  0  0  0
   -0.9511   -5.9600    1.1091 C   0  0  0  0  0  0  0  0  0  0  0  0
   -2.3891   -2.8941    0.8756 C   0  0  0  0  0  0  0  0  0  0  0  0
   -2.4767   -1.6234    0.0922 C   0  0  2  0  0  0  0  0  0  0  0  0
   -3.0038   -1.9253   -1.3062 C   0  0  0  0  0  0  0  0  0  0  0  0
   -3.1333   -0.4544   -2.3280 S   0  0  0  0  0  0  0  0  0  0  0  0
   -4.3404    0.7141   -1.7590 C   0  0  0  0  0  0  0  0  0  0  0  0
   -5.6471    0.8113   -2.0413 N   0  0  0  0  0  0  0  0  0  0  0  0
   -6.1835    1.8618   -1.3824 C   0  0  0  0  0  0  0  0  0  0  0  0
   -7.5721    2.3233   -1.4092 C   0  0  0  0  0  0  0  0  0  0  0  0
   -8.2095    2.7168   -2.5660 C   0  0  0  0  0  0  0  0  0  0  0  0
   -9.5364    3.1581   -2.5804 C   0  0  0  0  0  0  0  0  0  0  0  0
  -10.2562    3.2100   -1.4001 C   0  0  0  0  0  0  0  0  0  0  0  0
   -9.6236    2.8182   -0.2432 C   0  0  0  0  0  0  0  0  0  0  0  0
   -8.3127    2.3853   -0.2480 C   0  0  0  0  0  0  0  0  0  0  0  0
   -5.1398    2.4171   -0.6716 C   0  0  0  0  0  0  0  0  0  0  0  0
   -5.2208    3.5738    0.1916 C   0  0  0  0  0  0  0  0  0  0  0  0
   -4.9642    3.4494    1.5298 C   0  0  0  0  0  0  0  0  0  0  0  0
   -5.0302    4.5381    2.3958 C   0  0  0  0  0  0  0  0  0  0  0  0
   -5.3683    5.7623    1.8454 C   0  0  0  0  0  0  0  0  0  0  0  0
   -5.6346    5.9283    0.4971 C   0  0  0  0  0  0  0  0  0  0  0  0
   -5.5518    4.7980   -0.3179 C   0  0  0  0  0  0  0  0  0  0  0  0
   -4.0606    1.7049   -0.9222 O   0  0  0  0  0  0  0  0  0  0  0  0
   -1.3524   -0.8436    0.0835 O   0  0  0  0  0  0  0  0  0  0  0  0
    1.6789   -0.2986    0.1598 C   0  0  0  0  0  0  0  0  0  0  0  0
    2.7868    0.5103    0.3003 C   0  0  0  0  0  0  0  0  0  0  0  0
    7.7059    2.1557   -4.0132 N   0  0  0  0  0  0  0  0  0  0  0  0
    6.7784    2.6686   -4.8485 O   0  0  0  0  0  0  0  0  0  0  0  0
    9.2515    2.0286   -1.6066 H   0  0  0  0  0  0  0  0  0  0  0  0
    8.8346    0.2943   -2.1045 H   0  0  0  0  0  0  0  0  0  0  0  0
    6.9588    0.4338   -0.4921 H   0  0  0  0  0  0  0  0  0  0  0  0
    7.5459    2.1567   -0.0954 H   0  0  0  0  0  0  0  0  0  0  0  0
    9.6639    1.2475    0.7480 H   0  0  0  0  0  0  0  0  0  0  0  0
    9.2197   -0.3981    0.2756 H   0  0  0  0  0  0  0  0  0  0  0  0
    7.4487   -0.5083    1.8561 H   0  0  0  0  0  0  0  0  0  0  0  0
    9.0493   -0.2206    2.5480 H   0  0  0  0  0  0  0  0  0  0  0  0
    7.3887    0.9546    3.7917 H   0  0  0  0  0  0  0  0  0  0  0  0
    8.4982    2.1439    3.1367 H   0  0  0  0  0  0  0  0  0  0  0  0
    6.2290    2.8302    3.3165 H   0  0  0  0  0  0  0  0  0  0  0  0
    6.5867    2.9825    1.6192 H   0  0  0  0  0  0  0  0  0  0  0  0
    4.1620    3.0380    1.4708 H   0  0  0  0  0  0  0  0  0  0  0  0
    2.2374    1.6023    3.4060 H   0  0  0  0  0  0  0  0  0  0  0  0
    0.2614    0.1555    3.1447 H   0  0  0  0  0  0  0  0  0  0  0  0
   -0.9069   -1.4933    1.9873 H   0  0  0  0  0  0  0  0  0  0  0  0
   -0.7866   -3.5657    2.0766 H   0  0  0  0  0  0  0  0  0  0  0  0
   -0.4495   -4.0952   -1.6395 H   0  0  0  0  0  0  0  0  0  0  0  0
   -0.1608   -6.2675   -2.6222 H   0  0  0  0  0  0  0  0  0  0  0  0
    0.4211   -8.5620   -2.3352 H   0  0  0  0  0  0  0  0  0  0  0  0
    0.0824   -9.3441   -0.7142 H   0  0  0  0  0  0  0  0  0  0  0  0
   -2.2151   -8.8037   -1.2315 H   0  0  0  0  0  0  0  0  0  0  0  0
   -0.8746   -8.0798    1.1501 H   0  0  0  0  0  0  0  0  0  0  0  0
   -1.1704   -5.9017    2.1506 H   0  0  0  0  0  0  0  0  0  0  0  0
   -2.8881   -2.8020    1.8860 H   0  0  0  0  0  0  0  0  0  0  0  0
   -3.0396   -3.6565    0.3532 H   0  0  0  0  0  0  0  0  0  0  0  0
   -3.2749   -1.0015    0.6036 H   0  0  0  0  0  0  0  0  0  0  0  0
   -3.9837   -2.4720   -1.2328 H   0  0  0  0  0  0  0  0  0  0  0  0
   -2.3273   -2.6367   -1.8092 H   0  0  0  0  0  0  0  0  0  0  0  0
   -7.6285    2.6695   -3.4882 H   0  0  0  0  0  0  0  0  0  0  0  0
  -10.0017    3.4574   -3.5049 H   0  0  0  0  0  0  0  0  0  0  0  0
  -11.2831    3.5541   -1.4288 H   0  0  0  0  0  0  0  0  0  0  0  0
  -10.1919    2.8620    0.6757 H   0  0  0  0  0  0  0  0  0  0  0  0
   -7.8517    2.0853    0.6910 H   0  0  0  0  0  0  0  0  0  0  0  0
   -4.6978    2.5044    1.9880 H   0  0  0  0  0  0  0  0  0  0  0  0
   -4.8306    4.4418    3.4406 H   0  0  0  0  0  0  0  0  0  0  0  0
   -5.4254    6.6204    2.4982 H   0  0  0  0  0  0  0  0  0  0  0  0
   -5.8924    6.8947    0.1127 H   0  0  0  0  0  0  0  0  0  0  0  0
   -5.7638    4.9406   -1.3802 H   0  0  0  0  0  0  0  0  0  0  0  0
    1.5117   -0.8438   -0.7601 H   0  0  0  0  0  0  0  0  0  0  0  0
    3.5195    0.6256   -0.5018 H   0  0  0  0  0  0  0  0  0  0  0  0
    8.6630    1.9948   -4.3947 H   0  0  0  0  0  0  0  0  0  0  0  0
    6.8684    3.6594   -4.8278 H   0  0  0  0  0  0  0  0  0  0  0  0
  1  2  2  0
  2  3  1  0
  3  4  1  0
  4  5  1  0
  5  6  1  0
  6  7  1  0
  7  8  1  0
  8  9  1  0
  9 10  2  0
  9 11  1  0
 11 12  1  0
 12 13  2  0
 13 14  1  0
 14 15  2  0
 15 16  1  0
 16 17  1  0
 17 18  1  0
 18 19  1  0
 19 20  2  0
 20 21  1  0
 21 22  2  0
 22 23  1  0
 23 24  1  0
 22 25  1  0
 25 26  2  0
 18 27  1  0
 27 28  1  0
 28 29  1  0
 29 30  1  0
 30 31  1  0
 31 32  2  0
 32 33  1  0
 33 34  1  0
 34 35  2  0
 35 36  1  0
 36 37  2  0
 37 38  1  0
 38 39  2  0
 33 40  2  0
 40 41  1  0
 41 42  2  0
 42 43  1  0
 43 44  2  0
 44 45  1  0
 45 46  2  0
 40 47  1  0
 28 48  1  0
 15 49  1  0
 49 50  2  0
  2 51  1  0
 51 52  1  0
 50 12  1  0
 48 16  1  0
 26 19  1  0
 47 31  1  0
 39 34  1  0
 46 41  1  0
  3 53  1  0
  3 54  1  0
  4 55  1  0
  4 56  1  0
  5 57  1  0
  5 58  1  0
  6 59  1  0
  6 60  1  0
  7 61  1  0
  7 62  1  0
  8 63  1  0
  8 64  1  0
 11 65  1  0
 13 66  1  0
 14 67  1  0
 16 68  1  1
 18 69  1  1
 20 70  1  0
 21 71  1  0
 23 72  1  0
 23 73  1  0
 24 74  1  0
 25 75  1  0
 26 76  1  0
 27 77  1  0
 27 78  1  0
 28 79  1  1
 29 80  1  0
 29 81  1  0
 35 82  1  0
 36 83  1  0
 37 84  1  0
 38 85  1  0
 39 86  1  0
 42 87  1  0
 43 88  1  0
 44 89  1  0
 45 90  1  0
 46 91  1  0
 49 92  1  0
 50 93  1  0
 51 94  1  0
 52 95  1  0
M  END
$$$$
