@<TRIPOS>MOLECULE
*****
 50 53 0 0 0
SMALL
GASTEIGER

@<TRIPOS>ATOM
      1 N           7.6599    1.4755    0.4833 N.pl3   1  UNL1       -0.3377
      2 C           6.7844    0.3633    0.5142 C.ar    1  UNL1        0.1964
      3 N           5.4695    0.5192    0.5008 N.ar    1  UNL1       -0.2113
      4 C           4.6020   -0.5065    0.5289 C.ar    1  UNL1        0.1213
      5 N           3.1956   -0.3028    0.5143 N.pl3   1  UNL1       -0.3275
      6 C           2.6997    1.0591    0.4768 C.3     1  UNL1        0.0260
      7 C           1.1883    0.9899    0.4643 C.3     1  UNL1        0.0273
      8 N           0.7752    0.2637   -0.7030 N.pl3   1  UNL1       -0.3120
      9 C          -0.5998    0.0275   -0.9535 C.ar    1  UNL1        0.2158
     10 N          -0.9900   -0.6528   -2.0672 N.ar    1  UNL1       -0.2222
     11 C          -2.2886   -0.8894   -2.3180 C.ar    1  UNL1        0.0439
     12 C          -3.2944   -0.4646   -1.4755 C.ar    1  UNL1        0.0614
     13 C          -4.6922   -0.7236   -1.7498 C.ar    1  UNL1        0.1417
     14 N          -5.7323   -0.3582   -0.9894 N.ar    1  UNL1       -0.2360
     15 C          -6.8857   -0.7856   -1.5797 C.ar    1  UNL1        0.0458
     16 C          -6.5067   -1.4315   -2.7399 C.ar    1  UNL1        0.0216
     17 N          -5.1613   -1.3768   -2.8156 N.ar    1  UNL1       -0.3443
     18 C          -2.8891    0.2327   -0.3347 C.ar    1  UNL1        0.0880
     19 C          -3.9116    0.7140    0.6104 C.ar    1  UNL1        0.0196
     20 C          -4.3954    2.0032    0.5156 C.ar    1  UNL1       -0.0498
     21 C          -5.3510    2.4883    1.3843 C.ar    1  UNL1       -0.0427
     22 C          -5.8051    1.6241    2.3577 C.ar    1  UNL1        0.0424
     23 CL         -7.0042    2.1690    3.4808 Cl      1  UNL1       -0.0835
     24 C          -5.3216    0.3203    2.4603 C.ar    1  UNL1       -0.0244
     25 C          -4.3664   -0.1504    1.5847 C.ar    1  UNL1        0.0515
     26 CL         -3.7360   -1.7818    1.6836 Cl      1  UNL1       -0.0828
     27 N          -1.5776    0.4407   -0.1344 N.ar    1  UNL1       -0.2137
     28 C           5.1599   -1.7748    0.5740 C.ar    1  UNL1       -0.0153
     29 C           6.5178   -1.9790    0.5893 C.ar    1  UNL1        0.0224
     30 C           7.3627   -0.8932    0.5591 C.ar    1  UNL1        0.3123
     31 N           8.7859   -1.0560    0.5746 N.pl3   1  UNL1        0.0832
     32 O           9.4651   -0.1733    1.1257 O.2     1  UNL1        0.0416
     33 O           9.4297   -2.1283    0.0161 O.co2   1  UNL1       -0.5759
     34 H           7.7927    2.0149   -0.3928 H       1  UNL1        0.1439
     35 H           8.1873    1.7783    1.3273 H       1  UNL1        0.1439
     36 H           2.5786   -1.1437    0.5311 H       1  UNL1        0.1475
     37 H           3.0812    1.6596    1.3270 H       1  UNL1        0.0477
     38 H           3.0092    1.4839   -0.4985 H       1  UNL1        0.0477
     39 H           0.8863    0.4881    1.4113 H       1  UNL1        0.0477
     40 H           0.7795    2.0432    0.4374 H       1  UNL1        0.0477
     41 H           1.4795   -0.0910   -1.3677 H       1  UNL1        0.1490
     42 H          -2.5850   -1.4304   -3.2055 H       1  UNL1        0.0838
     43 H          -7.8930   -0.6503   -1.2194 H       1  UNL1        0.0845
     44 H          -7.1925   -1.8917   -3.4456 H       1  UNL1        0.0823
     45 H          -4.5606   -1.7698   -3.5684 H       1  UNL1        0.1668
     46 H          -4.0462    2.7000   -0.2498 H       1  UNL1        0.0625
     47 H          -5.7397    3.4952    1.3230 H       1  UNL1        0.0632
     48 H          -5.6823   -0.3610    3.2307 H       1  UNL1        0.0647
     49 H           4.4381   -2.6007    0.5968 H       1  UNL1        0.0654
     50 H           6.8802   -2.9868    0.6247 H       1  UNL1        0.0687
@<TRIPOS>UNITY_ATOM_ATTR
31 1
charge 1
33 1
charge -1
@<TRIPOS>BOND
     1     1     2    1
     2     2     3   ar
     3     3     4   ar
     4     4     5    1
     5     5     6    1
     6     6     7    1
     7     7     8    1
     8     8     9    1
     9     9    10   ar
    10    10    11   ar
    11    11    12   ar
    12    12    13    1
    13    13    14   ar
    14    14    15   ar
    15    15    16   ar
    16    16    17   ar
    17    12    18   ar
    18    18    19    1
    19    19    20   ar
    20    20    21   ar
    21    21    22   ar
    22    22    23    1
    23    22    24   ar
    24    24    25   ar
    25    25    26    1
    26    18    27   ar
    27     4    28   ar
    28    28    29   ar
    29    29    30   ar
    30    30    31    1
    31    31    32    2
    32    31    33    1
    33    30     2   ar
    34    27     9   ar
    35    17    13   ar
    36    25    19   ar
    37     1    34    1
    38     1    35    1
    39     5    36    1
    40     6    37    1
    41     6    38    1
    42     7    39    1
    43     7    40    1
    44     8    41    1
    45    11    42    1
    46    15    43    1
    47    16    44    1
    48    17    45    1
    49    20    46    1
    50    21    47    1
    51    24    48    1
    52    28    49    1
    53    29    50    1
