@<TRIPOS>MOLECULE
*****
 56 57 0 0 0
SMALL
GASTEIGER

@<TRIPOS>ATOM
      1 C          -4.0494   -3.2817   -1.0819 C.3     0  UNK0        0.0796
      2 C          -5.0652   -3.8783   -0.1621 C.3     0  UNK0       -0.0409
      3 N          -3.6798   -4.2512   -2.0743 N.3     0  UNK0       -0.3198
      4 P          -2.5472   -2.7288   -0.2131 P.3     0  UNK0        0.2188
      5 O          -1.2415   -3.7145   -0.6501 O.3     0  UNK0       -0.3426
      6 O          -2.8226   -2.9175    1.2556 O.2     0  UNK0       -0.2894
      7 C          -2.2261   -0.9802   -0.5181 C.3     0  UNK0        0.0371
      8 C          -2.1644   -0.1505    0.7092 C.3     0  UNK0        0.0482
      9 C          -1.1252   -0.4536    1.7168 C.3     0  UNK0       -0.0161
     10 C           0.2726   -0.3556    1.2854 C.ar    0  UNK0       -0.0466
     11 C           1.1192   -1.2972    0.7492 C.ar    0  UNK0       -0.0580
     12 C           2.4203   -0.9886    0.4102 C.ar    0  UNK0       -0.0538
     13 C           2.9508    0.2721    0.5859 C.ar    0  UNK0       -0.0179
     14 C           2.1242    1.2343    1.1217 C.ar    0  UNK0       -0.0538
     15 C           0.8334    0.9170    1.4547 C.ar    0  UNK0       -0.0580
     16 C           4.3399    0.4673    0.1872 C.ar    0  UNK0       -0.0179
     17 C           5.1865   -0.6212    0.3207 C.ar    0  UNK0       -0.0540
     18 C           6.5160   -0.5928   -0.0116 C.ar    0  UNK0       -0.0612
     19 C           7.0813    0.5815   -0.5152 C.ar    0  UNK0       -0.0617
     20 C           6.2270    1.6712   -0.6472 C.ar    0  UNK0       -0.0612
     21 C           4.8892    1.6354   -0.3106 C.ar    0  UNK0       -0.0540
     22 C          -2.2697    1.3157    0.3651 C.2     0  UNK0        0.2176
     23 O          -3.1669    2.0958    0.8381 O.2     0  UNK0       -0.2755
     24 N          -1.3854    1.9900   -0.5218 N.am    1  ALA1       -0.3023
     25 CA         -1.5229    3.3969   -0.8218 C.3     1  ALA1        0.1174
     26 CB         -0.2888    4.0818   -0.2272 C.3     1  ALA1       -0.0362
     27 C          -1.5347    3.7094   -2.2610 C.2     1  ALA1        0.3250
     28 O          -1.6668    5.0594   -2.5592 O.3     1  ALA1       -0.4793
     29 OXT        -1.4493    3.0030   -3.2977 O.2     1  ALA1       -0.2489
     30 H          -4.5206   -2.3758   -1.5350 H       0  UNK0        0.0557
     31 H          -5.2622   -4.9536   -0.4189 H       0  UNK0        0.0250
     32 H          -6.0630   -3.3768   -0.2281 H       0  UNK0        0.0250
     33 H          -4.7607   -3.8705    0.9092 H       0  UNK0        0.0250
     34 H          -2.7492   -3.9967   -2.5047 H       0  UNK0        0.1189
     35 H          -3.6702   -5.2159   -1.6713 H       0  UNK0        0.1189
     36 H          -1.2526   -4.5269   -0.0545 H       0  UNK0        0.2177
     37 H          -3.1051   -0.5915   -1.1170 H       0  UNK0        0.0372
     38 H          -1.3647   -0.8273   -1.2066 H       0  UNK0        0.0372
     39 H          -3.1537   -0.3555    1.2486 H       0  UNK0        0.0402
     40 H          -1.3099   -1.4630    2.1651 H       0  UNK0        0.0321
     41 H          -1.3336    0.2373    2.5957 H       0  UNK0        0.0321
     42 H           0.6574   -2.2667    0.6358 H       0  UNK0        0.0620
     43 H           2.9574   -1.8250    0.0037 H       0  UNK0        0.0624
     44 H           2.5432    2.2214    1.2581 H       0  UNK0        0.0624
     45 H           0.2702    1.7634    1.8724 H       0  UNK0        0.0620
     46 H           4.8681   -1.5978    0.7026 H       0  UNK0        0.0624
     47 H           7.1845   -1.4336    0.0882 H       0  UNK0        0.0618
     48 H           8.1194    0.6276   -0.7822 H       0  UNK0        0.0618
     49 H           6.6595    2.5939   -1.0402 H       0  UNK0        0.0618
     50 H           4.2232    2.4674   -0.4081 H       0  UNK0        0.0624
     51 H          -0.6168    1.4477   -0.9712 H       1  ALA1        0.1495
     52 HA         -2.3892    3.8384   -0.2770 H       1  ALA1        0.0611
     53 HB1        -0.0155    4.9912   -0.7956 H       1  ALA1        0.0253
     54 HB2         0.5879    3.4135   -0.1851 H       1  ALA1        0.0253
     55 HB3        -0.4898    4.4061    0.8240 H       1  ALA1        0.0253
     56 H          -1.7686    5.4496   -3.4733 H       1  ALA1        0.2951
@<TRIPOS>BOND
     1     1     2    1
     2     1     3    1
     3     1     4    1
     4     4     5    1
     5     4     6    2
     6     4     7    1
     7     7     8    1
     8     8     9    1
     9     9    10    1
    10    10    11   ar
    11    11    12   ar
    12    12    13   ar
    13    13    14   ar
    14    14    15   ar
    15    13    16    1
    16    16    17   ar
    17    17    18   ar
    18    18    19   ar
    19    19    20   ar
    20    20    21   ar
    21     8    22    1
    22    22    23    2
    23    22    24   am
    24    24    25    1
    25    25    26    1
    26    25    27    1
    27    27    28    1
    28    27    29    2
    29    15    10   ar
    30    21    16   ar
    31     1    30    1
    32     2    31    1
    33     2    32    1
    34     2    33    1
    35     3    34    1
    36     3    35    1
    37     5    36    1
    38     7    37    1
    39     7    38    1
    40     8    39    1
    41     9    40    1
    42     9    41    1
    43    11    42    1
    44    12    43    1
    45    14    44    1
    46    15    45    1
    47    17    46    1
    48    18    47    1
    49    19    48    1
    50    20    49    1
    51    21    50    1
    52    24    51    1
    53    25    52    1
    54    26    53    1
    55    26    54    1
    56    26    55    1
    57    28    56    1
