
     RDKit          3D

 37 40  0  0  0  0  0  0  0  0999 V2000
   -5.5376    2.7279    0.9350 O   0  0  0  0  0  0  0  0  0  0  0  0
   -4.6269    2.0677    0.3812 C   0  0  0  0  0  0  0  0  0  0  0  0
   -4.8188    1.6857   -0.9456 O   0  0  0  0  0  0  0  0  0  0  0  0
   -3.4093    1.7113    1.0997 C   0  0  0  0  0  0  0  0  0  0  0  0
   -2.4755    0.9446    0.3037 N   0  0  0  0  0  0  0  0  0  0  0  0
   -1.5185    1.4779   -0.4649 C   0  0  0  0  0  0  0  0  0  0  0  0
   -0.7988    0.4585   -1.0906 C   0  0  0  0  0  0  0  0  0  0  0  0
    0.3591    0.6335   -1.9979 C   0  0  0  0  0  0  0  0  0  0  0  0
    1.6530    0.4251   -1.2634 C   0  0  0  0  0  0  0  0  0  0  0  0
    2.4607    0.9935   -0.6121 N   0  0  0  0  0  0  0  0  0  0  0  0
    3.5534    0.5682   -0.0619 C   0  0  0  0  0  0  0  0  0  0  0  0
    4.4966    1.2411    0.7047 C   0  0  0  0  0  0  0  0  0  0  0  0
    4.3854    2.5630    1.0026 F   0  0  0  0  0  0  0  0  0  0  0  0
    5.5937    0.5922    1.1987 C   0  0  0  0  0  0  0  0  0  0  0  0
    6.5157    1.2824    1.9556 F   0  0  0  0  0  0  0  0  0  0  0  0
    5.8696   -0.7317    1.0016 C   0  0  0  0  0  0  0  0  0  0  0  0
    4.9285   -1.4221    0.2312 C   0  0  0  0  0  0  0  0  0  0  0  0
    5.1181   -2.7305   -0.0156 F   0  0  0  0  0  0  0  0  0  0  0  0
    3.8280   -0.7950   -0.2711 C   0  0  0  0  0  0  0  0  0  0  0  0
    2.4438   -1.2960   -1.2573 S   0  0  0  0  0  0  0  0  0  0  0  0
   -1.3797   -0.7074   -0.6534 C   0  0  0  0  0  0  0  0  0  0  0  0
   -1.0885   -2.0319   -0.9412 C   0  0  0  0  0  0  0  0  0  0  0  0
   -1.8485   -3.0061   -0.3518 C   0  0  0  0  0  0  0  0  0  0  0  0
   -2.8756   -2.7030    0.5033 C   0  0  0  0  0  0  0  0  0  0  0  0
   -3.1702   -1.3931    0.7927 C   0  0  0  0  0  0  0  0  0  0  0  0
   -2.4270   -0.4025    0.2178 C   0  0  0  0  0  0  0  0  0  0  0  0
   -5.2525    2.3435   -1.6149 H   0  0  0  0  0  0  0  0  0  0  0  0
   -2.9084    2.6092    1.5236 H   0  0  0  0  0  0  0  0  0  0  0  0
   -3.7226    1.1124    1.9902 H   0  0  0  0  0  0  0  0  0  0  0  0
   -1.2711    2.5276   -0.6363 H   0  0  0  0  0  0  0  0  0  0  0  0
    0.3424    1.6197   -2.4943 H   0  0  0  0  0  0  0  0  0  0  0  0
    0.2721   -0.1207   -2.8315 H   0  0  0  0  0  0  0  0  0  0  0  0
    6.7460   -1.1690    1.4201 H   0  0  0  0  0  0  0  0  0  0  0  0
   -0.3031   -2.3400   -1.6054 H   0  0  0  0  0  0  0  0  0  0  0  0
   -1.6623   -4.0622   -0.5437 H   0  0  0  0  0  0  0  0  0  0  0  0
   -3.4858   -3.4843    0.9759 H   0  0  0  0  0  0  0  0  0  0  0  0
   -3.9856   -1.1897    1.4708 H   0  0  0  0  0  0  0  0  0  0  0  0
  1  2  2  0
  2  3  1  0
  2  4  1  0
  4  5  1  0
  5  6  1  0
  6  7  2  0
  7  8  1  0
  8  9  1  0
  9 10  2  0
 10 11  1  0
 11 12  2  0
 12 13  1  0
 12 14  1  0
 14 15  1  0
 14 16  2  0
 16 17  1  0
 17 18  1  0
 17 19  2  0
 19 20  1  0
  7 21  1  0
 21 22  2  0
 22 23  1  0
 23 24  2  0
 24 25  1  0
 25 26  2  0
 26  5  1  0
 20  9  1  0
 26 21  1  0
 19 11  1  0
  3 27  1  0
  4 28  1  0
  4 29  1  0
  6 30  1  0
  8 31  1  0
  8 32  1  0
 16 33  1  0
 22 34  1  0
 23 35  1  0
 24 36  1  0
 25 37  1  0
M  END
$$$$
