@<TRIPOS>MOLECULE
*****
 37 40 0 0 0
SMALL
GASTEIGER

@<TRIPOS>ATOM
      1 O          -5.5376    2.7279    0.9350 O.2     1  UNL1       -0.2490
      2 C          -4.6269    2.0677    0.3812 C.2     1  UNL1        0.3247
      3 O          -4.8188    1.6857   -0.9456 O.3     1  UNL1       -0.4794
      4 C          -3.4093    1.7113    1.0997 C.3     1  UNL1        0.1202
      5 N          -2.4755    0.9446    0.3037 N.ar    1  UNL1       -0.3356
      6 C          -1.5185    1.4779   -0.4649 C.ar    1  UNL1        0.0099
      7 C          -0.7988    0.4585   -1.0906 C.ar    1  UNL1       -0.0158
      8 C           0.3591    0.6335   -1.9979 C.3     1  UNL1        0.0233
      9 C           1.6530    0.4251   -1.2634 C.ar    1  UNL1        0.0841
     10 N           2.4607    0.9935   -0.6121 N.ar    1  UNL1       -0.2406
     11 C           3.5534    0.5682   -0.0619 C.ar    1  UNL1        0.1192
     12 C           4.4966    1.2411    0.7047 C.ar    1  UNL1        0.1849
     13 F           4.3854    2.5630    1.0026 F       1  UNL1       -0.2002
     14 C           5.5937    0.5922    1.1987 C.ar    1  UNL1        0.1633
     15 F           6.5157    1.2824    1.9556 F       1  UNL1       -0.2023
     16 C           5.8696   -0.7317    1.0016 C.ar    1  UNL1        0.0129
     17 C           4.9285   -1.4221    0.2312 C.ar    1  UNL1        0.1420
     18 F           5.1181   -2.7305   -0.0156 F       1  UNL1       -0.2042
     19 C           3.8280   -0.7950   -0.2711 C.ar    1  UNL1        0.0773
     20 S           2.4438   -1.2960   -1.2573 S.2     1  UNL1       -0.0688
     21 C          -1.3797   -0.7074   -0.6534 C.ar    1  UNL1        0.0034
     22 C          -1.0885   -2.0319   -0.9412 C.ar    1  UNL1       -0.0523
     23 C          -1.8485   -3.0061   -0.3518 C.ar    1  UNL1       -0.0611
     24 C          -2.8756   -2.7030    0.5033 C.ar    1  UNL1       -0.0598
     25 C          -3.1702   -1.3931    0.7927 C.ar    1  UNL1       -0.0376
     26 C          -2.4270   -0.4025    0.2178 C.ar    1  UNL1        0.0498
     27 H          -5.2525    2.3435   -1.6149 H       1  UNL1        0.2951
     28 H          -2.9084    2.6092    1.5236 H       1  UNL1        0.0607
     29 H          -3.7226    1.1124    1.9902 H       1  UNL1        0.0607
     30 H          -1.2711    2.5276   -0.6363 H       1  UNL1        0.0812
     31 H           0.3424    1.6197   -2.4943 H       1  UNL1        0.0383
     32 H           0.2721   -0.1207   -2.8315 H       1  UNL1        0.0383
     33 H           6.7460   -1.1690    1.4201 H       1  UNL1        0.0676
     34 H          -0.3031   -2.3400   -1.6054 H       1  UNL1        0.0624
     35 H          -1.6623   -4.0622   -0.5437 H       1  UNL1        0.0618
     36 H          -3.4858   -3.4843    0.9759 H       1  UNL1        0.0618
     37 H          -3.9856   -1.1897    1.4708 H       1  UNL1        0.0638
@<TRIPOS>BOND
     1     1     2    2
     2     2     3    1
     3     2     4    1
     4     4     5    1
     5     5     6   ar
     6     6     7   ar
     7     7     8    1
     8     8     9    1
     9     9    10   ar
    10    10    11   ar
    11    11    12   ar
    12    12    13    1
    13    12    14   ar
    14    14    15    1
    15    14    16   ar
    16    16    17   ar
    17    17    18    1
    18    17    19   ar
    19    19    20   ar
    20     7    21   ar
    21    21    22   ar
    22    22    23   ar
    23    23    24   ar
    24    24    25   ar
    25    25    26   ar
    26    26     5   ar
    27    20     9   ar
    28    26    21   ar
    29    19    11   ar
    30     3    27    1
    31     4    28    1
    32     4    29    1
    33     6    30    1
    34     8    31    1
    35     8    32    1
    36    16    33    1
    37    22    34    1
    38    23    35    1
    39    24    36    1
    40    25    37    1
