@<TRIPOS>MOLECULE
*****
 32 32 0 0 0
SMALL
GASTEIGER

@<TRIPOS>ATOM
      1 C           1.7725   -1.4529    0.7103 C.3     1  UNL1       -0.0074
      2 C           0.7107   -0.6576   -0.0316 C.3     1  UNL1        0.2068
      3 O           1.4009    0.0942   -1.0016 O.3     1  UNL1       -0.2515
      4 P           2.5209    1.1309   -0.2908 P.3     1  UNL1        0.4748
      5 O           2.6684    2.5902   -1.1499 O.3     1  UNL1       -0.3025
      6 O           4.0796    0.4235   -0.3199 O.3     1  UNL1       -0.3025
      7 O           2.1538    1.5166    1.1265 O.2     1  UNL1       -0.2274
      8 O           0.0598    0.2388    0.7928 O.3     1  UNL1       -0.3378
      9 C          -0.8844    0.9068    0.0164 C.3     1  UNL1        0.1133
     10 C          -1.4490    2.1127    0.7343 C.3     1  UNL1        0.0730
     11 O          -2.3879    2.7235   -0.1165 O.3     1  UNL1       -0.3924
     12 C          -2.0386   -0.0402   -0.2007 C.3     1  UNL1        0.1119
     13 O          -2.9149    0.4429   -1.1981 O.3     1  UNL1       -0.3865
     14 C          -1.6459   -1.4485   -0.4560 C.3     1  UNL1        0.1144
     15 O          -2.1180   -2.3158    0.5386 O.3     1  UNL1       -0.3864
     16 C          -0.1785   -1.6488   -0.7170 C.3     1  UNL1        0.1373
     17 O           0.0854   -1.6486   -2.1027 O.3     1  UNL1       -0.3838
     18 H           2.1600   -2.1782   -0.0340 H       1  UNL1        0.0282
     19 H           1.2357   -2.0082    1.5224 H       1  UNL1        0.0282
     20 H           2.6022   -0.8476    1.0638 H       1  UNL1        0.0282
     21 H           3.4732    3.0442   -0.7432 H       1  UNL1        0.2220
     22 H           4.5207    0.5665   -1.1893 H       1  UNL1        0.2220
     23 H          -0.4570    1.1858   -0.9463 H       1  UNL1        0.0647
     24 H          -1.9573    1.8109    1.6632 H       1  UNL1        0.0584
     25 H          -0.6489    2.8718    0.9134 H       1  UNL1        0.0584
     26 H          -3.3206    2.4621    0.1674 H       1  UNL1        0.2095
     27 H          -2.6438   -0.0198    0.7518 H       1  UNL1        0.0647
     28 H          -3.3570   -0.3800   -1.5787 H       1  UNL1        0.2100
     29 H          -2.1647   -1.7978   -1.3900 H       1  UNL1        0.0648
     30 H          -1.4090   -2.4114    1.2125 H       1  UNL1        0.2100
     31 H           0.0214   -2.7062   -0.3956 H       1  UNL1        0.0674
     32 H           0.1100   -2.5598   -2.4863 H       1  UNL1        0.2101
@<TRIPOS>BOND
     1     1     2    1
     2     2     3    1
     3     3     4    1
     4     4     5    1
     5     4     6    1
     6     4     7    2
     7     2     8    1
     8     8     9    1
     9     9    10    1
    10    10    11    1
    11     9    12    1
    12    12    13    1
    13    12    14    1
    14    14    15    1
    15    14    16    1
    16    16    17    1
    17    16     2    1
    18     1    18    1
    19     1    19    1
    20     1    20    1
    21     5    21    1
    22     6    22    1
    23     9    23    1
    24    10    24    1
    25    10    25    1
    26    11    26    1
    27    12    27    1
    28    13    28    1
    29    14    29    1
    30    15    30    1
    31    16    31    1
    32    17    32    1
