@<TRIPOS>MOLECULE
*****
 41 43 0 0 0
SMALL
GASTEIGER

@<TRIPOS>ATOM
      1 C           1.4560   -2.7005    2.8124 C.3     1  UNL1        0.0790
      2 O           1.4160   -1.7180    1.8030 O.3     1  UNL1       -0.4915
      3 C           0.2082   -1.2203    1.3137 C.ar    1  UNL1        0.1615
      4 C          -0.9396   -1.7482    1.8772 C.ar    1  UNL1       -0.0160
      5 C          -2.1598   -1.2975    1.4365 C.ar    1  UNL1       -0.0546
      6 C          -2.2497   -0.3298    0.4439 C.ar    1  UNL1       -0.0387
      7 C          -3.5842    0.1286   -0.0028 C.3     1  UNL1        0.0080
      8 C          -3.7884    1.6002    0.1924 C.3     1  UNL1        0.0188
      9 N          -4.1757    2.1536   -1.0743 N.am    1  UNL1       -0.3147
     10 C          -4.5655    1.0586   -1.8924 C.2     1  UNL1        0.2137
     11 O          -5.4144    1.0890   -2.8413 O.2     1  UNL1       -0.2758
     12 C          -3.8195   -0.1704   -1.4730 C.3     1  UNL1        0.0322
     13 C          -1.0985    0.1672   -0.0880 C.ar    1  UNL1       -0.0128
     14 C           0.1778   -0.2653    0.3330 C.ar    1  UNL1        0.1626
     15 O           1.2849    0.2690   -0.2363 O.3     1  UNL1       -0.4852
     16 C           2.6334    0.0896   -0.0767 C.3     1  UNL1        0.1004
     17 C           3.1810   -0.3819   -1.4425 C.3     1  UNL1       -0.0158
     18 C           3.8258    0.8285   -2.0666 C.3     1  UNL1       -0.0496
     19 C           4.5024    1.4475   -0.8508 C.3     1  UNL1       -0.0496
     20 C           3.3806    1.4013    0.1585 C.3     1  UNL1       -0.0158
     21 H           0.9620   -3.6368    2.4738 H       1  UNL1        0.0660
     22 H           2.4793   -2.8694    3.1948 H       1  UNL1        0.0660
     23 H           0.8626   -2.3769    3.7142 H       1  UNL1        0.0660
     24 H          -0.8794   -2.5160    2.6648 H       1  UNL1        0.0655
     25 H          -3.0459   -1.7177    1.8845 H       1  UNL1        0.0622
     26 H          -4.3951   -0.3926    0.5482 H       1  UNL1        0.0369
     27 H          -2.8474    2.0838    0.5785 H       1  UNL1        0.0468
     28 H          -4.5564    1.8195    0.9717 H       1  UNL1        0.0468
     29 H          -4.1870    3.1487   -1.3827 H       1  UNL1        0.1487
     30 H          -2.8560   -0.1810   -2.0123 H       1  UNL1        0.0365
     31 H          -4.3811   -1.0899   -1.6383 H       1  UNL1        0.0365
     32 H          -1.1123    0.9273   -0.8686 H       1  UNL1        0.0658
     33 H           2.9693   -0.6406    0.6666 H       1  UNL1        0.0733
     34 H           3.9479   -1.1554   -1.3015 H       1  UNL1        0.0301
     35 H           2.3709   -0.7882   -2.0700 H       1  UNL1        0.0301
     36 H           3.1066    1.5241   -2.5235 H       1  UNL1        0.0266
     37 H           4.6212    0.5751   -2.7713 H       1  UNL1        0.0266
     38 H           5.3081    0.7490   -0.5595 H       1  UNL1        0.0266
     39 H           4.8518    2.4570   -1.0587 H       1  UNL1        0.0266
     40 H           3.8088    1.4434    1.1872 H       1  UNL1        0.0301
     41 H           2.7011    2.2353   -0.0238 H       1  UNL1        0.0301
@<TRIPOS>BOND
     1     1     2    1
     2     2     3    1
     3     3     4   ar
     4     4     5   ar
     5     5     6   ar
     6     6     7    1
     7     7     8    1
     8     8     9    1
     9     9    10   am
    10    10    11    2
    11    10    12    1
    12     6    13   ar
    13    13    14   ar
    14    14    15    1
    15    15    16    1
    16    16    17    1
    17    17    18    1
    18    18    19    1
    19    19    20    1
    20    14     3   ar
    21    20    16    1
    22    12     7    1
    23     1    21    1
    24     1    22    1
    25     1    23    1
    26     4    24    1
    27     5    25    1
    28     7    26    1
    29     8    27    1
    30     8    28    1
    31     9    29    1
    32    12    30    1
    33    12    31    1
    34    13    32    1
    35    16    33    1
    36    17    34    1
    37    17    35    1
    38    18    36    1
    39    18    37    1
    40    19    38    1
    41    19    39    1
    42    20    40    1
    43    20    41    1
