
     RDKit          3D

 40 43  0  0  0  0  0  0  0  0999 V2000
   -5.4214   -1.3604    0.7264 N   0  0  0  0  0  0  0  0  0  0  0  0
   -4.8330   -0.4528    0.2636 C   0  0  0  0  0  0  0  0  0  0  0  0
   -4.1110    0.6750   -0.2838 C   0  0  0  0  0  0  0  0  0  0  0  0
   -4.6189    1.7272   -1.0124 C   0  0  0  0  0  0  0  0  0  0  0  0
   -3.6013    2.5487   -1.3165 N   0  0  0  0  0  0  0  0  0  0  0  0
   -2.4526    2.0600   -0.8077 C   0  0  0  0  0  0  0  0  0  0  0  0
   -1.1386    2.4900   -0.8203 C   0  0  0  0  0  0  0  0  0  0  0  0
   -0.1884    1.7404   -0.1913 C   0  0  0  0  0  0  0  0  0  0  0  0
   -0.5479    0.5739    0.4436 C   0  0  0  0  0  0  0  0  0  0  0  0
    0.5039   -0.2391    1.1119 C   0  0  0  0  0  0  0  0  0  0  0  0
    1.5570   -0.8513    0.4334 C   0  0  0  0  0  0  0  0  0  0  0  0
    1.8449   -0.8516   -0.9895 C   0  0  0  0  0  0  0  0  0  0  0  0
    0.9994   -1.3860   -1.9403 C   0  0  0  0  0  0  0  0  0  0  0  0
    1.2869   -1.3766   -3.2893 C   0  0  0  0  0  0  0  0  0  0  0  0
    2.4596   -0.8182   -3.7416 C   0  0  0  0  0  0  0  0  0  0  0  0
    3.3256   -0.2776   -2.8320 C   0  0  0  0  0  0  0  0  0  0  0  0
    4.5549    0.3112   -3.2679 N   0  0  0  0  0  0  0  0  0  0  0  0
    3.0311   -0.2908   -1.4859 C   0  0  0  0  0  0  0  0  0  0  0  0
    2.2881   -1.4514    1.3778 N   0  0  0  0  0  0  0  0  0  0  0  0
    1.7669   -1.2575    2.6043 C   0  0  0  0  0  0  0  0  0  0  0  0
    0.6416   -0.4888    2.3932 N   0  0  0  0  0  0  0  0  0  0  0  0
   -0.2051   -0.0892    3.5083 C   0  0  0  0  0  0  0  0  0  0  0  0
   -1.2167   -1.1193    3.9099 C   0  0  0  0  0  0  0  0  0  0  0  0
   -0.5335   -2.2896    4.2897 F   0  0  0  0  0  0  0  0  0  0  0  0
   -2.0929   -1.4436    2.9154 F   0  0  0  0  0  0  0  0  0  0  0  0
   -1.8309    0.2126    0.4210 N   0  0  0  0  0  0  0  0  0  0  0  0
   -2.7662    0.9193   -0.1795 N   0  0  0  0  0  0  0  0  0  0  0  0
   -5.6695    1.8579   -1.2872 H   0  0  0  0  0  0  0  0  0  0  0  0
   -0.9128    3.4205   -1.3395 H   0  0  0  0  0  0  0  0  0  0  0  0
    0.8307    2.0822   -0.2042 H   0  0  0  0  0  0  0  0  0  0  0  0
    0.0730   -1.8249   -1.5586 H   0  0  0  0  0  0  0  0  0  0  0  0
    0.5914   -1.8095   -4.0060 H   0  0  0  0  0  0  0  0  0  0  0  0
    2.7190   -0.7946   -4.8014 H   0  0  0  0  0  0  0  0  0  0  0  0
    4.6496    1.3419   -3.2646 H   0  0  0  0  0  0  0  0  0  0  0  0
    5.3587   -0.2614   -3.5875 H   0  0  0  0  0  0  0  0  0  0  0  0
    3.7269    0.1435   -0.7561 H   0  0  0  0  0  0  0  0  0  0  0  0
    2.1273   -1.6121    3.5615 H   0  0  0  0  0  0  0  0  0  0  0  0
    0.4080    0.1573    4.4006 H   0  0  0  0  0  0  0  0  0  0  0  0
   -0.7601    0.8484    3.2641 H   0  0  0  0  0  0  0  0  0  0  0  0
   -1.8437   -0.7637    4.7663 H   0  0  0  0  0  0  0  0  0  0  0  0
  1  2  3  0
  2  3  1  0
  3  4  2  0
  4  5  1  0
  5  6  2  0
  6  7  1  0
  7  8  2  0
  8  9  1  0
  9 10  1  0
 10 11  2  0
 11 12  1  0
 12 13  2  0
 13 14  1  0
 14 15  2  0
 15 16  1  0
 16 17  1  0
 16 18  2  0
 11 19  1  0
 19 20  2  0
 20 21  1  0
 21 22  1  0
 22 23  1  0
 23 24  1  0
 23 25  1  0
  9 26  2  0
 26 27  1  0
 27  3  1  0
 27  6  1  0
 21 10  1  0
 18 12  1  0
  4 28  1  0
  7 29  1  0
  8 30  1  0
 13 31  1  0
 14 32  1  0
 15 33  1  0
 17 34  1  0
 17 35  1  0
 18 36  1  0
 20 37  1  0
 22 38  1  0
 22 39  1  0
 23 40  1  0
M  END
$$$$
