@<TRIPOS>MOLECULE
*****
 40 43 0 0 0
SMALL
GASTEIGER

@<TRIPOS>ATOM
      1 N          -5.4214   -1.3604    0.7264 N.1     1  UNL1       -0.1892
      2 C          -4.8330   -0.4528    0.2636 C.1     1  UNL1        0.1208
      3 C          -4.1110    0.6750   -0.2838 C.ar    1  UNL1        0.1618
      4 C          -4.6189    1.7272   -1.0124 C.ar    1  UNL1        0.0659
      5 N          -3.6013    2.5487   -1.3165 N.ar    1  UNL1       -0.2333
      6 C          -2.4526    2.0600   -0.8077 C.ar    1  UNL1        0.1555
      7 C          -1.1386    2.4900   -0.8203 C.ar    1  UNL1       -0.0153
      8 C          -0.1884    1.7404   -0.1913 C.ar    1  UNL1       -0.0290
      9 C          -0.5479    0.5739    0.4436 C.ar    1  UNL1        0.1103
     10 C           0.5039   -0.2391    1.1119 C.ar    1  UNL1        0.0968
     11 C           1.5570   -0.8513    0.4334 C.ar    1  UNL1        0.0983
     12 C           1.8449   -0.8516   -0.9895 C.ar    1  UNL1        0.0042
     13 C           0.9994   -1.3860   -1.9403 C.ar    1  UNL1       -0.0524
     14 C           1.2869   -1.3766   -3.2893 C.ar    1  UNL1       -0.0594
     15 C           2.4596   -0.8182   -3.7416 C.ar    1  UNL1       -0.0410
     16 C           3.3256   -0.2776   -2.8320 C.ar    1  UNL1        0.0252
     17 N           4.5549    0.3112   -3.2679 N.pl3   1  UNL1       -0.3579
     18 C           3.0311   -0.2908   -1.4859 C.ar    1  UNL1       -0.0318
     19 N           2.2881   -1.4514    1.3778 N.ar    1  UNL1       -0.2351
     20 C           1.7669   -1.2575    2.6043 C.ar    1  UNL1        0.0973
     21 N           0.6416   -0.4888    2.3932 N.ar    1  UNL1       -0.3229
     22 C          -0.2051   -0.0892    3.5083 C.3     1  UNL1        0.0852
     23 C          -1.2167   -1.1193    3.9099 C.3     1  UNL1        0.2569
     24 F          -0.5335   -2.2896    4.2897 F       1  UNL1       -0.2073
     25 F          -2.0929   -1.4436    2.9154 F       1  UNL1       -0.2073
     26 N          -1.8309    0.2126    0.4210 N.ar    1  UNL1       -0.1623
     27 N          -2.7662    0.9193   -0.1795 N.ar    1  UNL1       -0.2023
     28 H          -5.6695    1.8579   -1.2872 H       1  UNL1        0.0859
     29 H          -0.9128    3.4205   -1.3395 H       1  UNL1        0.0655
     30 H           0.8307    2.0822   -0.2042 H       1  UNL1        0.0641
     31 H           0.0730   -1.8249   -1.5586 H       1  UNL1        0.0624
     32 H           0.5914   -1.8095   -4.0060 H       1  UNL1        0.0618
     33 H           2.7190   -0.7946   -4.8014 H       1  UNL1        0.0636
     34 H           4.6496    1.3419   -3.2646 H       1  UNL1        0.1423
     35 H           5.3587   -0.2614   -3.5875 H       1  UNL1        0.1423
     36 H           3.7269    0.1435   -0.7561 H       1  UNL1        0.0642
     37 H           2.1273   -1.6121    3.5615 H       1  UNL1        0.1029
     38 H           0.4080    0.1573    4.4006 H       1  UNL1        0.0548
     39 H          -0.7601    0.8484    3.2641 H       1  UNL1        0.0548
     40 H          -1.8437   -0.7637    4.7663 H       1  UNL1        0.1037
@<TRIPOS>BOND
     1     1     2    3
     2     2     3    1
     3     3     4   ar
     4     4     5   ar
     5     5     6   ar
     6     6     7   ar
     7     7     8   ar
     8     8     9   ar
     9     9    10    1
    10    10    11   ar
    11    11    12    1
    12    12    13   ar
    13    13    14   ar
    14    14    15   ar
    15    15    16   ar
    16    16    17    1
    17    16    18   ar
    18    11    19   ar
    19    19    20   ar
    20    20    21   ar
    21    21    22    1
    22    22    23    1
    23    23    24    1
    24    23    25    1
    25     9    26   ar
    26    26    27   ar
    27    27     3   ar
    28    27     6   ar
    29    21    10   ar
    30    18    12   ar
    31     4    28    1
    32     7    29    1
    33     8    30    1
    34    13    31    1
    35    14    32    1
    36    15    33    1
    37    17    34    1
    38    17    35    1
    39    18    36    1
    40    20    37    1
    41    22    38    1
    42    22    39    1
    43    23    40    1
