@<TRIPOS>MOLECULE
*****
 91 97 0 0 0
SMALL
GASTEIGER

@<TRIPOS>ATOM
      1 C          12.6498   -0.6090    0.6884 C.3     1  UNL1       -0.0497
      2 C          11.4238    0.2775    0.6676 C.3     1  UNL1        0.0049
      3 C          10.4075   -0.1334    1.7407 C.3     1  UNL1       -0.0497
      4 N          10.7738    0.2351   -0.5886 N.3     1  UNL1       -0.2969
      5 C          10.3150   -1.0235   -1.0560 C.3     1  UNL1        0.0150
      6 C           9.1509   -0.7865   -1.9848 C.3     1  UNL1        0.0278
      7 N           8.9283    0.6229   -2.1934 N.am    1  UNL1       -0.2951
      8 C           7.6271    1.1708   -2.0983 C.2     1  UNL1        0.2467
      9 O           7.4877    2.4316   -2.2897 O.2     1  UNL1       -0.2700
     10 C           6.4309    0.3856   -1.7947 C.ar    1  UNL1        0.0370
     11 C           5.9031    0.3522   -0.5227 C.ar    1  UNL1       -0.0479
     12 C           4.7755   -0.3690   -0.2209 C.ar    1  UNL1       -0.0397
     13 C           4.1014   -1.1119   -1.2049 C.ar    1  UNL1        0.0348
     14 N           2.9578   -1.8606   -0.8336 N.am    1  UNL1       -0.2692
     15 C           1.6356   -1.3576   -0.7366 C.2     1  UNL1        0.3081
     16 O           1.4249   -0.1640   -1.0203 O.2     1  UNL1       -0.2522
     17 N           0.5495   -2.1756   -0.3183 N.am    1  UNL1       -0.2692
     18 C          -0.7846   -1.7106   -0.1712 C.ar    1  UNL1        0.0348
     19 C          -1.7668   -1.8479   -1.1194 C.ar    1  UNL1       -0.0398
     20 C          -3.0699   -1.3628   -0.8960 C.ar    1  UNL1       -0.0493
     21 C          -3.4247   -0.7367    0.2585 C.ar    1  UNL1        0.0194
     22 C          -4.7461   -0.2030    0.5635 C.ar    1  UNL1        0.1652
     23 N          -4.9506    0.5010    1.7090 N.ar    1  UNL1       -0.2122
     24 C          -6.1395    0.9962    2.0825 C.ar    1  UNL1        0.1382
     25 C          -6.2924    1.7489    3.3657 C.3     1  UNL1        0.0233
     26 C          -7.3891    2.7338    3.4047 C.3     1  UNL1       -0.0197
     27 C          -8.7239    2.1692    3.7680 C.3     1  UNL1        0.0483
     28 O          -8.6103    1.4878    4.9757 O.3     1  UNL1       -0.3797
     29 C          -7.8202    0.3608    4.7701 C.3     1  UNL1        0.0483
     30 C          -6.3792    0.7481    4.5161 C.3     1  UNL1       -0.0197
     31 N          -7.1649    0.7684    1.2557 N.ar    1  UNL1       -0.1991
     32 C          -7.0401    0.0686    0.0829 C.ar    1  UNL1        0.2220
     33 N          -8.1591   -0.1464   -0.7461 N.pl3   1  UNL1       -0.2891
     34 C          -8.8207   -1.3975   -1.1022 C.3     1  UNL1        0.0500
     35 C         -10.2553   -1.0183   -0.6731 C.3     1  UNL1       -0.0304
     36 C         -10.3403    0.4875   -0.9811 C.3     1  UNL1       -0.0304
     37 C          -8.9205    0.8646   -1.4325 C.3     1  UNL1        0.0500
     38 C          -8.8492    0.5850   -2.9174 C.3     1  UNL1        0.0663
     39 O          -9.6366   -0.5715   -3.1206 O.3     1  UNL1       -0.3761
     40 C          -8.8707   -1.6334   -2.5773 C.3     1  UNL1        0.0663
     41 N          -5.7936   -0.4000   -0.2184 N.ar    1  UNL1       -0.1945
     42 C          -2.4218   -0.5926    1.2332 C.ar    1  UNL1       -0.0493
     43 C          -1.1565   -1.0626    1.0195 C.ar    1  UNL1       -0.0398
     44 C           4.6529   -1.0569   -2.4600 C.ar    1  UNL1       -0.0397
     45 C           5.7844   -0.3421   -2.7911 C.ar    1  UNL1       -0.0479
     46 C          10.0507    1.4755   -2.5088 C.3     1  UNL1        0.0278
     47 C          11.1986    1.1515   -1.5846 C.3     1  UNL1        0.0150
     48 H          13.0859   -0.5911   -0.3337 H       1  UNL1        0.0245
     49 H          13.3860   -0.3109    1.4667 H       1  UNL1        0.0245
     50 H          12.3819   -1.6620    0.9056 H       1  UNL1        0.0245
     51 H          11.7569    1.3339    0.8363 H       1  UNL1        0.0457
     52 H          10.4876   -1.2589    1.8040 H       1  UNL1        0.0245
     53 H           9.3833    0.0873    1.3366 H       1  UNL1        0.0245
     54 H          10.5727    0.3544    2.7004 H       1  UNL1        0.0245
     55 H          11.1041   -1.6448   -1.5271 H       1  UNL1        0.0442
     56 H           9.9323   -1.5919   -0.1694 H       1  UNL1        0.0442
     57 H           9.4520   -1.2018   -2.9790 H       1  UNL1        0.0477
     58 H           8.2487   -1.3221   -1.6535 H       1  UNL1        0.0477
     59 H           6.4175    0.9256    0.2653 H       1  UNL1        0.0626
     60 H           4.3480   -0.4041    0.7809 H       1  UNL1        0.0636
     61 H           3.0773   -2.8886   -0.6034 H       1  UNL1        0.1564
     62 H           0.7961   -3.1902   -0.1168 H       1  UNL1        0.1564
     63 H          -1.5337   -2.3435   -2.0556 H       1  UNL1        0.0636
     64 H          -3.8204   -1.4851   -1.6547 H       1  UNL1        0.0625
     65 H          -5.3112    2.2754    3.5564 H       1  UNL1        0.0381
     66 H          -7.4016    3.3430    2.4774 H       1  UNL1        0.0294
     67 H          -7.1541    3.4967    4.2125 H       1  UNL1        0.0294
     68 H          -9.0646    1.4700    2.9634 H       1  UNL1        0.0560
     69 H          -9.4175    3.0533    3.8723 H       1  UNL1        0.0560
     70 H          -7.8433   -0.2382    5.6983 H       1  UNL1        0.0560
     71 H          -8.1672   -0.2613    3.9433 H       1  UNL1        0.0560
     72 H          -5.9380    1.1744    5.4320 H       1  UNL1        0.0294
     73 H          -5.8268   -0.1705    4.2313 H       1  UNL1        0.0294
     74 H          -8.4487   -2.2605   -0.5131 H       1  UNL1        0.0523
     75 H         -10.9606   -1.5815   -1.2796 H       1  UNL1        0.0284
     76 H         -10.3070   -1.2017    0.4113 H       1  UNL1        0.0284
     77 H         -10.6351    1.0326   -0.0678 H       1  UNL1        0.0284
     78 H         -11.0707    0.6273   -1.7997 H       1  UNL1        0.0284
     79 H          -8.6406    1.8833   -1.1640 H       1  UNL1        0.0523
     80 H          -7.8097    0.2924   -3.1645 H       1  UNL1        0.0578
     81 H          -9.2275    1.4243   -3.5376 H       1  UNL1        0.0578
     82 H          -7.8961   -1.7412   -3.0572 H       1  UNL1        0.0578
     83 H          -9.4979   -2.5555   -2.7347 H       1  UNL1        0.0578
     84 H          -2.6862   -0.0961    2.1630 H       1  UNL1        0.0625
     85 H          -0.3893   -0.9540    1.7722 H       1  UNL1        0.0636
     86 H           4.1495   -1.6259   -3.2586 H       1  UNL1        0.0636
     87 H           6.1861   -0.3375   -3.8093 H       1  UNL1        0.0626
     88 H           9.7597    2.5654   -2.4261 H       1  UNL1        0.0477
     89 H          10.3035    1.2922   -3.5793 H       1  UNL1        0.0477
     90 H          11.4792    2.1105   -1.0649 H       1  UNL1        0.0442
     91 H          12.0369    0.7667   -2.2185 H       1  UNL1        0.0442
@<TRIPOS>BOND
     1     1     2    1
     2     2     3    1
     3     2     4    1
     4     4     5    1
     5     5     6    1
     6     6     7    1
     7     7     8   am
     8     8     9    2
     9     8    10    1
    10    10    11   ar
    11    11    12   ar
    12    12    13   ar
    13    13    14    1
    14    14    15   am
    15    15    16    2
    16    15    17   am
    17    17    18    1
    18    18    19   ar
    19    19    20   ar
    20    20    21   ar
    21    21    22    1
    22    22    23   ar
    23    23    24   ar
    24    24    25    1
    25    25    26    1
    26    26    27    1
    27    27    28    1
    28    28    29    1
    29    29    30    1
    30    24    31   ar
    31    31    32   ar
    32    32    33    1
    33    33    34    1
    34    34    35    1
    35    35    36    1
    36    36    37    1
    37    37    38    1
    38    38    39    1
    39    39    40    1
    40    32    41   ar
    41    21    42   ar
    42    42    43   ar
    43    13    44   ar
    44    44    45   ar
    45     7    46    1
    46    46    47    1
    47    47     4    1
    48    45    10   ar
    49    43    18   ar
    50    41    22   ar
    51    30    25    1
    52    37    33    1
    53    40    34    1
    54     1    48    1
    55     1    49    1
    56     1    50    1
    57     2    51    1
    58     3    52    1
    59     3    53    1
    60     3    54    1
    61     5    55    1
    62     5    56    1
    63     6    57    1
    64     6    58    1
    65    11    59    1
    66    12    60    1
    67    14    61    1
    68    17    62    1
    69    19    63    1
    70    20    64    1
    71    25    65    1
    72    26    66    1
    73    26    67    1
    74    27    68    1
    75    27    69    1
    76    29    70    1
    77    29    71    1
    78    30    72    1
    79    30    73    1
    80    34    74    1
    81    35    75    1
    82    35    76    1
    83    36    77    1
    84    36    78    1
    85    37    79    1
    86    38    80    1
    87    38    81    1
    88    40    82    1
    89    40    83    1
    90    42    84    1
    91    43    85    1
    92    44    86    1
    93    45    87    1
    94    46    88    1
    95    46    89    1
    96    47    90    1
    97    47    91    1
