
     RDKit          3D

 91 97  0  0  0  0  0  0  0  0999 V2000
   12.6498   -0.6090    0.6884 C   0  0  0  0  0  0  0  0  0  0  0  0
   11.4238    0.2775    0.6676 C   0  0  0  0  0  0  0  0  0  0  0  0
   10.4075   -0.1334    1.7407 C   0  0  0  0  0  0  0  0  0  0  0  0
   10.7738    0.2351   -0.5886 N   0  0  0  0  0  0  0  0  0  0  0  0
   10.3150   -1.0235   -1.0560 C   0  0  0  0  0  0  0  0  0  0  0  0
    9.1509   -0.7865   -1.9848 C   0  0  0  0  0  0  0  0  0  0  0  0
    8.9283    0.6229   -2.1934 N   0  0  0  0  0  0  0  0  0  0  0  0
    7.6271    1.1708   -2.0983 C   0  0  0  0  0  0  0  0  0  0  0  0
    7.4877    2.4316   -2.2897 O   0  0  0  0  0  0  0  0  0  0  0  0
    6.4309    0.3856   -1.7947 C   0  0  0  0  0  0  0  0  0  0  0  0
    5.9031    0.3522   -0.5227 C   0  0  0  0  0  0  0  0  0  0  0  0
    4.7755   -0.3690   -0.2209 C   0  0  0  0  0  0  0  0  0  0  0  0
    4.1014   -1.1119   -1.2049 C   0  0  0  0  0  0  0  0  0  0  0  0
    2.9578   -1.8606   -0.8336 N   0  0  0  0  0  0  0  0  0  0  0  0
    1.6356   -1.3576   -0.7366 C   0  0  0  0  0  0  0  0  0  0  0  0
    1.4249   -0.1640   -1.0203 O   0  0  0  0  0  0  0  0  0  0  0  0
    0.5495   -2.1756   -0.3183 N   0  0  0  0  0  0  0  0  0  0  0  0
   -0.7846   -1.7106   -0.1712 C   0  0  0  0  0  0  0  0  0  0  0  0
   -1.7668   -1.8479   -1.1194 C   0  0  0  0  0  0  0  0  0  0  0  0
   -3.0699   -1.3628   -0.8960 C   0  0  0  0  0  0  0  0  0  0  0  0
   -3.4247   -0.7367    0.2585 C   0  0  0  0  0  0  0  0  0  0  0  0
   -4.7461   -0.2030    0.5635 C   0  0  0  0  0  0  0  0  0  0  0  0
   -4.9506    0.5010    1.7090 N   0  0  0  0  0  0  0  0  0  0  0  0
   -6.1395    0.9962    2.0825 C   0  0  0  0  0  0  0  0  0  0  0  0
   -6.2924    1.7489    3.3657 C   0  0  0  0  0  0  0  0  0  0  0  0
   -7.3891    2.7338    3.4047 C   0  0  0  0  0  0  0  0  0  0  0  0
   -8.7239    2.1692    3.7680 C   0  0  0  0  0  0  0  0  0  0  0  0
   -8.6103    1.4878    4.9757 O   0  0  0  0  0  0  0  0  0  0  0  0
   -7.8202    0.3608    4.7701 C   0  0  0  0  0  0  0  0  0  0  0  0
   -6.3792    0.7481    4.5161 C   0  0  0  0  0  0  0  0  0  0  0  0
   -7.1649    0.7684    1.2557 N   0  0  0  0  0  0  0  0  0  0  0  0
   -7.0401    0.0686    0.0829 C   0  0  0  0  0  0  0  0  0  0  0  0
   -8.1591   -0.1464   -0.7461 N   0  0  0  0  0  0  0  0  0  0  0  0
   -8.8207   -1.3975   -1.1022 C   0  0  0  0  0  0  0  0  0  0  0  0
  -10.2553   -1.0183   -0.6731 C   0  0  0  0  0  0  0  0  0  0  0  0
  -10.3403    0.4875   -0.9811 C   0  0  0  0  0  0  0  0  0  0  0  0
   -8.9205    0.8646   -1.4325 C   0  0  0  0  0  0  0  0  0  0  0  0
   -8.8492    0.5850   -2.9174 C   0  0  0  0  0  0  0  0  0  0  0  0
   -9.6366   -0.5715   -3.1206 O   0  0  0  0  0  0  0  0  0  0  0  0
   -8.8707   -1.6334   -2.5773 C   0  0  0  0  0  0  0  0  0  0  0  0
   -5.7936   -0.4000   -0.2184 N   0  0  0  0  0  0  0  0  0  0  0  0
   -2.4218   -0.5926    1.2332 C   0  0  0  0  0  0  0  0  0  0  0  0
   -1.1565   -1.0626    1.0195 C   0  0  0  0  0  0  0  0  0  0  0  0
    4.6529   -1.0569   -2.4600 C   0  0  0  0  0  0  0  0  0  0  0  0
    5.7844   -0.3421   -2.7911 C   0  0  0  0  0  0  0  0  0  0  0  0
   10.0507    1.4755   -2.5088 C   0  0  0  0  0  0  0  0  0  0  0  0
   11.1986    1.1515   -1.5846 C   0  0  0  0  0  0  0  0  0  0  0  0
   13.0859   -0.5911   -0.3337 H   0  0  0  0  0  0  0  0  0  0  0  0
   13.3860   -0.3109    1.4667 H   0  0  0  0  0  0  0  0  0  0  0  0
   12.3819   -1.6620    0.9056 H   0  0  0  0  0  0  0  0  0  0  0  0
   11.7569    1.3339    0.8363 H   0  0  0  0  0  0  0  0  0  0  0  0
   10.4876   -1.2589    1.8040 H   0  0  0  0  0  0  0  0  0  0  0  0
    9.3833    0.0873    1.3366 H   0  0  0  0  0  0  0  0  0  0  0  0
   10.5727    0.3544    2.7004 H   0  0  0  0  0  0  0  0  0  0  0  0
   11.1041   -1.6448   -1.5271 H   0  0  0  0  0  0  0  0  0  0  0  0
    9.9323   -1.5919   -0.1694 H   0  0  0  0  0  0  0  0  0  0  0  0
    9.4520   -1.2018   -2.9790 H   0  0  0  0  0  0  0  0  0  0  0  0
    8.2487   -1.3221   -1.6535 H   0  0  0  0  0  0  0  0  0  0  0  0
    6.4175    0.9256    0.2653 H   0  0  0  0  0  0  0  0  0  0  0  0
    4.3480   -0.4041    0.7809 H   0  0  0  0  0  0  0  0  0  0  0  0
    3.0773   -2.8886   -0.6034 H   0  0  0  0  0  0  0  0  0  0  0  0
    0.7961   -3.1902   -0.1168 H   0  0  0  0  0  0  0  0  0  0  0  0
   -1.5337   -2.3435   -2.0556 H   0  0  0  0  0  0  0  0  0  0  0  0
   -3.8204   -1.4851   -1.6547 H   0  0  0  0  0  0  0  0  0  0  0  0
   -5.3112    2.2754    3.5564 H   0  0  0  0  0  0  0  0  0  0  0  0
   -7.4016    3.3430    2.4774 H   0  0  0  0  0  0  0  0  0  0  0  0
   -7.1541    3.4967    4.2125 H   0  0  0  0  0  0  0  0  0  0  0  0
   -9.0646    1.4700    2.9634 H   0  0  0  0  0  0  0  0  0  0  0  0
   -9.4175    3.0533    3.8723 H   0  0  0  0  0  0  0  0  0  0  0  0
   -7.8433   -0.2382    5.6983 H   0  0  0  0  0  0  0  0  0  0  0  0
   -8.1672   -0.2613    3.9433 H   0  0  0  0  0  0  0  0  0  0  0  0
   -5.9380    1.1744    5.4320 H   0  0  0  0  0  0  0  0  0  0  0  0
   -5.8268   -0.1705    4.2313 H   0  0  0  0  0  0  0  0  0  0  0  0
   -8.4487   -2.2605   -0.5131 H   0  0  0  0  0  0  0  0  0  0  0  0
  -10.9606   -1.5815   -1.2796 H   0  0  0  0  0  0  0  0  0  0  0  0
  -10.3070   -1.2017    0.4113 H   0  0  0  0  0  0  0  0  0  0  0  0
  -10.6351    1.0326   -0.0678 H   0  0  0  0  0  0  0  0  0  0  0  0
  -11.0707    0.6273   -1.7997 H   0  0  0  0  0  0  0  0  0  0  0  0
   -8.6406    1.8833   -1.1640 H   0  0  0  0  0  0  0  0  0  0  0  0
   -7.8097    0.2924   -3.1645 H   0  0  0  0  0  0  0  0  0  0  0  0
   -9.2275    1.4243   -3.5376 H   0  0  0  0  0  0  0  0  0  0  0  0
   -7.8961   -1.7412   -3.0572 H   0  0  0  0  0  0  0  0  0  0  0  0
   -9.4979   -2.5555   -2.7347 H   0  0  0  0  0  0  0  0  0  0  0  0
   -2.6862   -0.0961    2.1630 H   0  0  0  0  0  0  0  0  0  0  0  0
   -0.3893   -0.9540    1.7722 H   0  0  0  0  0  0  0  0  0  0  0  0
    4.1495   -1.6259   -3.2586 H   0  0  0  0  0  0  0  0  0  0  0  0
    6.1861   -0.3375   -3.8093 H   0  0  0  0  0  0  0  0  0  0  0  0
    9.7597    2.5654   -2.4261 H   0  0  0  0  0  0  0  0  0  0  0  0
   10.3035    1.2922   -3.5793 H   0  0  0  0  0  0  0  0  0  0  0  0
   11.4792    2.1105   -1.0649 H   0  0  0  0  0  0  0  0  0  0  0  0
   12.0369    0.7667   -2.2185 H   0  0  0  0  0  0  0  0  0  0  0  0
  1  2  1  0
  2  3  1  0
  2  4  1  0
  4  5  1  0
  5  6  1  0
  6  7  1  0
  7  8  1  0
  8  9  2  0
  8 10  1  0
 10 11  2  0
 11 12  1  0
 12 13  2  0
 13 14  1  0
 14 15  1  0
 15 16  2  0
 15 17  1  0
 17 18  1  0
 18 19  2  0
 19 20  1  0
 20 21  2  0
 21 22  1  0
 22 23  2  0
 23 24  1  0
 24 25  1  0
 25 26  1  0
 26 27  1  0
 27 28  1  0
 28 29  1  0
 29 30  1  0
 24 31  2  0
 31 32  1  0
 32 33  1  0
 33 34  1  0
 34 35  1  0
 35 36  1  0
 36 37  1  0
 37 38  1  0
 38 39  1  0
 39 40  1  0
 32 41  2  0
 21 42  1  0
 42 43  2  0
 13 44  1  0
 44 45  2  0
  7 46  1  0
 46 47  1  0
 47  4  1  0
 45 10  1  0
 43 18  1  0
 41 22  1  0
 30 25  1  0
 37 33  1  0
 40 34  1  0
  1 48  1  0
  1 49  1  0
  1 50  1  0
  2 51  1  0
  3 52  1  0
  3 53  1  0
  3 54  1  0
  5 55  1  0
  5 56  1  0
  6 57  1  0
  6 58  1  0
 11 59  1  0
 12 60  1  0
 14 61  1  0
 17 62  1  0
 19 63  1  0
 20 64  1  0
 25 65  1  0
 26 66  1  0
 26 67  1  0
 27 68  1  0
 27 69  1  0
 29 70  1  0
 29 71  1  0
 30 72  1  0
 30 73  1  0
 34 74  1  0
 35 75  1  0
 35 76  1  0
 36 77  1  0
 36 78  1  0
 37 79  1  0
 38 80  1  0
 38 81  1  0
 40 82  1  0
 40 83  1  0
 42 84  1  0
 43 85  1  0
 44 86  1  0
 45 87  1  0
 46 88  1  0
 46 89  1  0
 47 90  1  0
 47 91  1  0
M  END
$$$$
