@<TRIPOS>MOLECULE
*****
 47 49 0 0 0
SMALL
GASTEIGER

@<TRIPOS>ATOM
      1 C          -2.9972    0.0517    2.5550 C.3     1  UNL1       -0.0612
      2 C          -3.2399    0.4441    1.0756 C.3     1  UNL1       -0.0284
      3 C          -2.8941   -0.6589    0.1855 C.ar    1  UNL1       -0.0192
      4 C          -3.9346   -1.5369   -0.1855 C.ar    1  UNL1       -0.0194
      5 C          -3.6809   -2.6672   -0.9435 C.ar    1  UNL1        0.1464
      6 F          -4.6996   -3.4795   -1.2769 F       1  UNL1       -0.2035
      7 C          -2.3884   -2.9316   -1.3379 C.ar    1  UNL1        0.0880
      8 N          -2.1681   -4.0967   -2.1079 N.pl3   1  UNL1       -0.3540
      9 C          -1.3832   -2.0607   -0.9675 C.ar    1  UNL1        0.1134
     10 N          -0.0608   -2.0486   -1.1919 N.ar    1  UNL1       -0.2226
     11 C           0.5237   -0.9803   -0.6264 C.ar    1  UNL1        0.1776
     12 C           1.9469   -0.6411   -0.6655 C.ar    1  UNL1        0.1712
     13 C           2.7259   -0.5057   -1.7941 C.ar    1  UNL1       -0.0119
     14 C           3.9937   -0.1831   -1.3816 C.ar    1  UNL1       -0.0077
     15 C           3.9359   -0.1339    0.0031 C.ar    1  UNL1        0.2160
     16 P           5.2910    0.2412    1.1035 P.3     1  UNL1        0.3929
     17 O           4.8175    1.2445    2.1333 O.2     1  UNL1       -0.2503
     18 O           6.5636    0.9261    0.1960 O.3     1  UNL1       -0.3187
     19 O           5.8808   -1.1636    1.8362 O.3     1  UNL1       -0.3187
     20 O           2.7168   -0.4100    0.3609 O.2     1  UNL1       -0.4443
     21 N          -0.4698   -0.2546    0.0008 N.ar    1  UNL1       -0.3206
     22 C          -0.1837    0.9491    0.6835 C.3     1  UNL1        0.0277
     23 C          -0.0861    2.1494   -0.2615 C.3     1  UNL1       -0.0286
     24 C          -1.2640    2.4705   -1.0650 C.3     1  UNL1       -0.0610
     25 C           0.2909    3.3787    0.5716 C.3     1  UNL1       -0.0610
     26 C          -1.6229   -0.9127   -0.2031 C.ar    1  UNL1        0.0744
     27 H          -2.8355    0.9464    3.1681 H       1  UNL1        0.0233
     28 H          -3.8133   -0.6021    2.9288 H       1  UNL1        0.0233
     29 H          -2.0604   -0.5502    2.5943 H       1  UNL1        0.0233
     30 H          -4.3496    0.5329    1.0625 H       1  UNL1        0.0311
     31 H          -2.9421    1.4419    0.8543 H       1  UNL1        0.0311
     32 H          -4.9506   -1.3341    0.1219 H       1  UNL1        0.0650
     33 H          -2.3872   -4.1472   -3.1391 H       1  UNL1        0.1425
     34 H          -1.7737   -4.9871   -1.7089 H       1  UNL1        0.1425
     35 H           2.4512   -0.6189   -2.8347 H       1  UNL1        0.0657
     36 H           4.8520   -0.0067   -2.0107 H       1  UNL1        0.0658
     37 H           7.2737    1.2641    0.7728 H       1  UNL1        0.2201
     38 H           5.5288   -1.9302    1.2918 H       1  UNL1        0.2201
     39 H          -0.6508    1.1914    1.6237 H       1  UNL1        0.0495
     40 H           0.8916    0.8727    1.0309 H       1  UNL1        0.0495
     41 H           0.8081    1.9200   -0.9217 H       1  UNL1        0.0313
     42 H          -1.8533    1.5683   -1.3506 H       1  UNL1        0.0233
     43 H          -0.9514    3.0070   -1.9809 H       1  UNL1        0.0233
     44 H          -1.9294    3.1599   -0.4959 H       1  UNL1        0.0233
     45 H          -0.3358    4.2588    0.2899 H       1  UNL1        0.0233
     46 H           1.3317    3.6695    0.3803 H       1  UNL1        0.0233
     47 H           0.0825    3.1535    1.6268 H       1  UNL1        0.0233
@<TRIPOS>BOND
     1     1     2    1
     2     2     3    1
     3     3     4   ar
     4     4     5   ar
     5     5     6    1
     6     5     7   ar
     7     7     8    1
     8     7     9   ar
     9     9    10   ar
    10    10    11   ar
    11    11    12    1
    12    12    13   ar
    13    13    14   ar
    14    14    15   ar
    15    15    16    1
    16    16    17    2
    17    16    18    1
    18    16    19    1
    19    15    20   ar
    20    11    21   ar
    21    21    22    1
    22    22    23    1
    23    23    24    1
    24    23    25    1
    25    21    26   ar
    26    26     3   ar
    27    26     9   ar
    28    20    12   ar
    29     1    27    1
    30     1    28    1
    31     1    29    1
    32     2    30    1
    33     2    31    1
    34     4    32    1
    35     8    33    1
    36     8    34    1
    37    13    35    1
    38    14    36    1
    39    18    37    1
    40    19    38    1
    41    22    39    1
    42    22    40    1
    43    23    41    1
    44    24    42    1
    45    24    43    1
    46    24    44    1
    47    25    45    1
    48    25    46    1
    49    25    47    1
