
     RDKit          3D

 57 60  0  0  0  0  0  0  0  0999 V2000
    0.7372   -0.5609    0.6661 C   0  0  2  0  0  0  0  0  0  0  0  0
    1.7630   -0.5682    1.7137 C   0  0  0  0  0  0  0  0  0  0  0  0
    2.9340   -1.1093    0.8682 C   0  0  1  0  0  0  0  0  0  0  0  0
    2.5936   -2.5400    0.5462 C   0  0  0  0  0  0  0  0  0  0  0  0
    2.7879   -0.3117   -0.4422 C   0  0  2  0  0  0  0  0  0  0  0  0
    3.0910   -1.1299   -1.5307 O   0  0  0  0  0  0  0  0  0  0  0  0
    3.7775    0.7908   -0.4269 C   0  0  0  0  0  0  0  0  0  0  0  0
    4.5244    0.6069   -1.3992 O   0  0  0  0  0  0  0  0  0  0  0  0
    4.7637    1.8902   -0.4110 C   0  0  0  0  0  0  0  0  0  0  0  0
    5.6380    1.7620   -1.4846 O   0  0  0  0  0  0  0  0  0  0  0  0
    1.3851    0.1799   -0.4797 C   0  0  2  0  0  0  0  0  0  0  0  0
    1.3273    1.6768   -0.3473 C   0  0  0  0  0  0  0  0  0  0  0  0
    0.6182   -0.2233   -1.7056 C   0  0  0  0  0  0  0  0  0  0  0  0
   -0.8482   -0.2422   -1.5682 C   0  0  2  0  0  0  0  0  0  0  0  0
   -1.3183    0.9643   -2.1411 O   0  0  0  0  0  0  0  0  0  0  0  0
   -1.4468   -0.3349   -0.2101 C   0  0  1  0  0  0  0  0  0  0  0  0
   -0.5535    0.1433    0.9164 C   0  0  1  0  0  0  0  0  0  0  0  0
   -1.1961   -0.2239    2.2220 C   0  0  2  0  0  0  0  0  0  0  0  0
   -1.2019   -1.9556    2.5565 Cl  0  0  0  0  0  0  0  0  0  0  0  0
   -2.5881    0.3678    2.2282 C   0  0  0  0  0  0  0  0  0  0  0  0
   -3.4450   -0.2148    1.1851 C   0  0  0  0  0  0  0  0  0  0  0  0
   -4.5256   -0.9286    1.4549 C   0  0  0  0  0  0  0  0  0  0  0  0
   -5.2197   -1.4088    0.2661 C   0  0  0  0  0  0  0  0  0  0  0  0
   -6.2604   -2.0979    0.4117 O   0  0  0  0  0  0  0  0  0  0  0  0
   -4.7690   -1.1311   -1.0900 C   0  0  0  0  0  0  0  0  0  0  0  0
   -3.6703   -0.4000   -1.1884 C   0  0  0  0  0  0  0  0  0  0  0  0
   -2.8396    0.1746   -0.1028 C   0  0  2  0  0  0  0  0  0  0  0  0
   -2.9510    1.6778   -0.2237 C   0  0  0  0  0  0  0  0  0  0  0  0
    0.5638   -1.6038    0.3333 H   0  0  0  0  0  0  0  0  0  0  0  0
    1.9945    0.3885    2.1858 H   0  0  0  0  0  0  0  0  0  0  0  0
    1.5830   -1.3016    2.5463 H   0  0  0  0  0  0  0  0  0  0  0  0
    3.9022   -0.9564    1.3406 H   0  0  0  0  0  0  0  0  0  0  0  0
    3.4591   -3.2313    0.7058 H   0  0  0  0  0  0  0  0  0  0  0  0
    2.1902   -2.6907   -0.4777 H   0  0  0  0  0  0  0  0  0  0  0  0
    1.8049   -2.9467    1.2388 H   0  0  0  0  0  0  0  0  0  0  0  0
    3.3664   -0.6175   -2.3228 H   0  0  0  0  0  0  0  0  0  0  0  0
    4.2914    2.8907   -0.4391 H   0  0  0  0  0  0  0  0  0  0  0  0
    5.3712    1.8894    0.5284 H   0  0  0  0  0  0  0  0  0  0  0  0
    5.9598    2.6950   -1.6952 H   0  0  0  0  0  0  0  0  0  0  0  0
    1.3516    2.0673    0.6659 H   0  0  0  0  0  0  0  0  0  0  0  0
    0.3451    2.0052   -0.8034 H   0  0  0  0  0  0  0  0  0  0  0  0
    2.0879    2.1920   -0.9506 H   0  0  0  0  0  0  0  0  0  0  0  0
    1.0093   -1.2453   -1.9897 H   0  0  0  0  0  0  0  0  0  0  0  0
    0.9427    0.4157   -2.5536 H   0  0  0  0  0  0  0  0  0  0  0  0
   -1.2343   -1.0404   -2.2453 H   0  0  0  0  0  0  0  0  0  0  0  0
   -1.3539    0.9446   -3.1099 H   0  0  0  0  0  0  0  0  0  0  0  0
   -1.5419   -1.4440    0.0011 H   0  0  0  0  0  0  0  0  0  0  0  0
   -0.4957    1.2307    0.8587 H   0  0  0  0  0  0  0  0  0  0  0  0
   -0.6421    0.3226    3.0405 H   0  0  0  0  0  0  0  0  0  0  0  0
   -2.4979    1.4567    2.0726 H   0  0  0  0  0  0  0  0  0  0  0  0
   -3.0271    0.2590    3.2470 H   0  0  0  0  0  0  0  0  0  0  0  0
   -4.8247   -1.1112    2.4693 H   0  0  0  0  0  0  0  0  0  0  0  0
   -5.2813   -1.4875   -1.9725 H   0  0  0  0  0  0  0  0  0  0  0  0
   -3.3407   -0.1995   -2.2198 H   0  0  0  0  0  0  0  0  0  0  0  0
   -3.4168    1.9759   -1.2099 H   0  0  0  0  0  0  0  0  0  0  0  0
   -3.6684    2.0775    0.5229 H   0  0  0  0  0  0  0  0  0  0  0  0
   -2.0057    2.2121   -0.0511 H   0  0  0  0  0  0  0  0  0  0  0  0
  1  2  1  0
  2  3  1  0
  3  4  1  0
  3  5  1  0
  5  6  1  6
  5  7  1  0
  7  8  2  0
  7  9  1  0
  9 10  1  0
  5 11  1  0
 11 12  1  1
 11 13  1  0
 13 14  1  0
 14 15  1  0
 14 16  1  0
 16 17  1  0
 17 18  1  0
 18 19  1  0
 18 20  1  0
 20 21  1  0
 21 22  2  0
 22 23  1  0
 23 24  2  0
 23 25  1  0
 25 26  2  0
 26 27  1  0
 27 28  1  6
 11  1  1  0
 27 16  1  0
 17  1  1  0
 27 21  1  0
  1 29  1  6
  2 30  1  0
  2 31  1  0
  3 32  1  1
  4 33  1  0
  4 34  1  0
  4 35  1  0
  6 36  1  0
  9 37  1  0
  9 38  1  0
 10 39  1  0
 12 40  1  0
 12 41  1  0
 12 42  1  0
 13 43  1  0
 13 44  1  0
 14 45  1  6
 15 46  1  0
 16 47  1  1
 17 48  1  1
 18 49  1  1
 20 50  1  0
 20 51  1  0
 22 52  1  0
 25 53  1  0
 26 54  1  0
 28 55  1  0
 28 56  1  0
 28 57  1  0
M  END
$$$$
