@<TRIPOS>MOLECULE
*****
 51 54 0 0 0
SMALL
GASTEIGER

@<TRIPOS>ATOM
      1 N           7.1204   -1.4438   -0.9144 N.pl3   1  UNL1       -0.2497
      2 C           6.8518   -0.4633    0.1075 C.2     1  UNL1        0.2662
      3 N           7.8092   -0.0880    0.8910 N.2     1  UNL1       -0.2884
      4 C           5.5250    0.1031    0.2642 C.ar    1  UNL1        0.0629
      5 C           5.2836    1.3774    0.7361 C.ar    1  UNL1       -0.0450
      6 C           4.0219    1.9223    0.8875 C.ar    1  UNL1       -0.0354
      7 C           2.9626    1.0880    0.5256 C.ar    1  UNL1        0.0665
      8 N           1.6507    1.3569    0.5703 N.ar    1  UNL1       -0.3379
      9 C           0.9700    0.2823    0.1339 C.ar    1  UNL1        0.1387
     10 N           1.8843   -0.6441   -0.1770 N.ar    1  UNL1       -0.2277
     11 C           3.1352   -0.1959    0.0471 C.ar    1  UNL1        0.0903
     12 C           4.4302   -0.6713   -0.0766 C.ar    1  UNL1       -0.0195
     13 C          -0.4713    0.1453    0.0194 C.ar    1  UNL1        0.0104
     14 C          -1.3121    1.1788    0.3740 C.ar    1  UNL1       -0.0478
     15 C          -2.6845    1.0804    0.2770 C.ar    1  UNL1       -0.0373
     16 C          -3.1993   -0.1189   -0.1993 C.ar    1  UNL1       -0.0507
     17 C          -2.3885   -1.1748   -0.5638 C.ar    1  UNL1       -0.0219
     18 C          -1.0216   -1.0236   -0.4470 C.ar    1  UNL1       -0.0896
     19 O          -0.2290   -2.1225   -0.8285 O.co2   1  UNL1       -0.8728
     20 C          -3.0530   -2.3734   -1.0464 C.ar    1  UNL1        0.0168
     21 C          -3.4702   -3.4398   -0.2704 C.ar    1  UNL1        0.1310
     22 F          -3.2045   -3.2883    1.0503 F       1  UNL1       -0.2049
     23 C          -4.0942   -4.5310   -0.8414 C.ar    1  UNL1       -0.0258
     24 C          -4.3214   -4.5914   -2.2080 C.ar    1  UNL1       -0.0590
     25 C          -3.9141   -3.5377   -3.0099 C.ar    1  UNL1       -0.0610
     26 C          -3.2874   -2.4470   -2.4180 C.ar    1  UNL1       -0.0513
     27 C          -3.5706    2.2108    0.6664 C.3     1  UNL1        0.0287
     28 C          -3.3184    2.5592    2.1047 C.3     1  UNL1       -0.0013
     29 C          -4.2116    3.6885    2.4739 C.2     1  UNL1        0.0427
     30 O          -4.3046    4.3164    3.6916 O.co2   1  UNL1       -0.5498
     31 O          -5.0291    4.2265    1.6658 O.co2   1  UNL1       -0.5498
     32 C          -3.3571    3.3911   -0.2288 C.2     1  UNL1        0.0495
     33 O          -3.0022    4.4030   -1.1010 O.co2   1  UNL1       -0.5492
     34 O          -3.2565    4.4096   -0.9502 O.co2   1  UNL1       -0.5492
     35 H           6.7386   -2.4278   -0.8918 H       1  UNL1        0.2883
     36 H           7.7316   -0.9497   -1.6010 H       1  UNL1        0.2883
     37 H           8.1202    0.5153    1.6961 H       1  UNL1        0.3009
     38 H           8.7655   -0.4891    0.7862 H       1  UNL1        0.3009
     39 H           6.1220    1.9901    1.0045 H       1  UNL1        0.0627
     40 H           3.8529    2.9193    1.2576 H       1  UNL1        0.0639
     41 H           1.2099    2.2674    0.8958 H       1  UNL1        0.1674
     42 H           4.5365   -1.6764   -0.4524 H       1  UNL1        0.0648
     43 H          -0.9349    2.1218    0.7473 H       1  UNL1        0.0627
     44 H          -4.2845   -0.1696   -0.2657 H       1  UNL1        0.0626
     45 H          -4.3621   -5.2799   -0.1223 H       1  UNL1        0.0646
     46 H          -4.8153   -5.4990   -2.5095 H       1  UNL1        0.0618
     47 H          -4.1167   -3.6440   -4.0479 H       1  UNL1        0.0618
     48 H          -3.0189   -1.6887   -3.1652 H       1  UNL1        0.0624
     49 H          -4.6099    1.8980    0.5028 H       1  UNL1        0.0412
     50 H          -3.6233    1.7066    2.7194 H       1  UNL1        0.0334
     51 H          -2.2553    2.8208    2.2405 H       1  UNL1        0.0334
@<TRIPOS>UNITY_ATOM_ATTR
3 1
charge 1
19 1
charge -1
30 1
charge -1
33 1
charge -1
@<TRIPOS>BOND
     1     1     2    1
     2     2     3    2
     3     2     4    1
     4     4     5   ar
     5     5     6   ar
     6     6     7   ar
     7     7     8   ar
     8     8     9   ar
     9     9    10   ar
    10    10    11   ar
    11    11    12   ar
    12     9    13    1
    13    13    14   ar
    14    14    15   ar
    15    15    16   ar
    16    16    17   ar
    17    17    18   ar
    18    18    19    1
    19    17    20    1
    20    20    21   ar
    21    21    22    1
    22    21    23   ar
    23    23    24   ar
    24    24    25   ar
    25    25    26   ar
    26    15    27    1
    27    27    28    1
    28    28    29    1
    29    29    30   ar
    30    29    31   ar
    31    27    32    1
    32    32    33   ar
    33    32    34   ar
    34    12     4   ar
    35    18    13   ar
    36    26    20   ar
    37    11     7   ar
    38     1    35    1
    39     1    36    1
    40     3    37    1
    41     3    38    1
    42     5    39    1
    43     6    40    1
    44     8    41    1
    45    12    42    1
    46    14    43    1
    47    16    44    1
    48    23    45    1
    49    24    46    1
    50    25    47    1
    51    26    48    1
    52    27    49    1
    53    28    50    1
    54    28    51    1
