
     RDKit          3D

 51 54  0  0  0  0  0  0  0  0999 V2000
    7.1204   -1.4438   -0.9144 N   0  0  0  0  0  0  0  0  0  0  0  0
    6.8518   -0.4633    0.1075 C   0  0  0  0  0  0  0  0  0  0  0  0
    7.8092   -0.0880    0.8910 N   0  0  0  0  0  4  0  0  0  0  0  0
    5.5250    0.1031    0.2642 C   0  0  0  0  0  0  0  0  0  0  0  0
    5.2836    1.3774    0.7361 C   0  0  0  0  0  0  0  0  0  0  0  0
    4.0219    1.9223    0.8875 C   0  0  0  0  0  0  0  0  0  0  0  0
    2.9626    1.0880    0.5256 C   0  0  0  0  0  0  0  0  0  0  0  0
    1.6507    1.3569    0.5703 N   0  0  0  0  0  0  0  0  0  0  0  0
    0.9700    0.2823    0.1339 C   0  0  0  0  0  0  0  0  0  0  0  0
    1.8843   -0.6441   -0.1770 N   0  0  0  0  0  0  0  0  0  0  0  0
    3.1352   -0.1959    0.0471 C   0  0  0  0  0  0  0  0  0  0  0  0
    4.4302   -0.6713   -0.0766 C   0  0  0  0  0  0  0  0  0  0  0  0
   -0.4713    0.1453    0.0194 C   0  0  0  0  0  0  0  0  0  0  0  0
   -1.3121    1.1788    0.3740 C   0  0  0  0  0  0  0  0  0  0  0  0
   -2.6845    1.0804    0.2770 C   0  0  0  0  0  0  0  0  0  0  0  0
   -3.1993   -0.1189   -0.1993 C   0  0  0  0  0  0  0  0  0  0  0  0
   -2.3885   -1.1748   -0.5638 C   0  0  0  0  0  0  0  0  0  0  0  0
   -1.0216   -1.0236   -0.4470 C   0  0  0  0  0  0  0  0  0  0  0  0
   -0.2290   -2.1225   -0.8285 O   0  0  0  0  0  1  0  0  0  0  0  0
   -3.0530   -2.3734   -1.0464 C   0  0  0  0  0  0  0  0  0  0  0  0
   -3.4702   -3.4398   -0.2704 C   0  0  0  0  0  0  0  0  0  0  0  0
   -3.2045   -3.2883    1.0503 F   0  0  0  0  0  0  0  0  0  0  0  0
   -4.0942   -4.5310   -0.8414 C   0  0  0  0  0  0  0  0  0  0  0  0
   -4.3214   -4.5914   -2.2080 C   0  0  0  0  0  0  0  0  0  0  0  0
   -3.9141   -3.5377   -3.0099 C   0  0  0  0  0  0  0  0  0  0  0  0
   -3.2874   -2.4470   -2.4180 C   0  0  0  0  0  0  0  0  0  0  0  0
   -3.5706    2.2108    0.6664 C   0  0  1  0  0  0  0  0  0  0  0  0
   -3.3184    2.5592    2.1047 C   0  0  0  0  0  0  0  0  0  0  0  0
   -4.2116    3.6885    2.4739 C   0  0  0  0  0  0  0  0  0  0  0  0
   -4.3046    4.3164    3.6916 O   0  0  0  0  0  1  0  0  0  0  0  0
   -5.0291    4.2265    1.6658 O   0  0  0  0  0  0  0  0  0  0  0  0
   -3.3571    3.3911   -0.2288 C   0  0  0  0  0  0  0  0  0  0  0  0
   -3.0022    4.4030   -1.1010 O   0  0  0  0  0  1  0  0  0  0  0  0
   -3.2565    4.4096   -0.9502 O   0  0  0  0  0  0  0  0  0  0  0  0
    6.7386   -2.4278   -0.8918 H   0  0  0  0  0  0  0  0  0  0  0  0
    7.7316   -0.9497   -1.6010 H   0  0  0  0  0  0  0  0  0  0  0  0
    8.1202    0.5153    1.6961 H   0  0  0  0  0  0  0  0  0  0  0  0
    8.7655   -0.4891    0.7862 H   0  0  0  0  0  0  0  0  0  0  0  0
    6.1220    1.9901    1.0045 H   0  0  0  0  0  0  0  0  0  0  0  0
    3.8529    2.9193    1.2576 H   0  0  0  0  0  0  0  0  0  0  0  0
    1.2099    2.2674    0.8958 H   0  0  0  0  0  0  0  0  0  0  0  0
    4.5365   -1.6764   -0.4524 H   0  0  0  0  0  0  0  0  0  0  0  0
   -0.9349    2.1218    0.7473 H   0  0  0  0  0  0  0  0  0  0  0  0
   -4.2845   -0.1696   -0.2657 H   0  0  0  0  0  0  0  0  0  0  0  0
   -4.3621   -5.2799   -0.1223 H   0  0  0  0  0  0  0  0  0  0  0  0
   -4.8153   -5.4990   -2.5095 H   0  0  0  0  0  0  0  0  0  0  0  0
   -4.1167   -3.6440   -4.0479 H   0  0  0  0  0  0  0  0  0  0  0  0
   -3.0189   -1.6887   -3.1652 H   0  0  0  0  0  0  0  0  0  0  0  0
   -4.6099    1.8980    0.5028 H   0  0  0  0  0  0  0  0  0  0  0  0
   -3.6233    1.7066    2.7194 H   0  0  0  0  0  0  0  0  0  0  0  0
   -2.2553    2.8208    2.2405 H   0  0  0  0  0  0  0  0  0  0  0  0
  1  2  1  0
  2  3  2  0
  2  4  1  0
  4  5  2  0
  5  6  1  0
  6  7  2  0
  7  8  1  0
  8  9  1  0
  9 10  2  0
 10 11  1  0
 11 12  2  0
  9 13  1  0
 13 14  2  0
 14 15  1  0
 15 16  2  0
 16 17  1  0
 17 18  2  0
 18 19  1  0
 17 20  1  0
 20 21  2  0
 21 22  1  0
 21 23  1  0
 23 24  2  0
 24 25  1  0
 25 26  2  0
 15 27  1  0
 27 28  1  0
 28 29  1  0
 29 30  1  0
 29 31  2  0
 27 32  1  0
 32 33  1  0
 32 34  2  0
 12  4  1  0
 18 13  1  0
 26 20  1  0
 11  7  1  0
  1 35  1  0
  1 36  1  0
  3 37  1  0
  3 38  1  0
  5 39  1  0
  6 40  1  0
  8 41  1  0
 12 42  1  0
 14 43  1  0
 16 44  1  0
 23 45  1  0
 24 46  1  0
 25 47  1  0
 26 48  1  0
 27 49  1  1
 28 50  1  0
 28 51  1  0
M  CHG  4   3   1  19  -1  30  -1  33  -1
M  END
$$$$
