
     RDKit          3D

 22 22  0  0  0  0  0  0  0  0999 V2000
   -3.2838   -0.5805   -1.0544 N   0  0  0  0  0  0  0  0  0  0  0  0
   -2.9075   -0.2639    0.2753 C   0  0  0  0  0  0  0  0  0  0  0  0
   -3.8816   -0.0035    1.3030 N   0  0  0  0  0  0  0  0  0  0  0  0
   -2.0852   -0.0425    1.2402 N   0  0  0  0  0  0  0  0  0  0  0  0
   -0.7302   -0.1404    0.9196 N   0  0  0  0  0  0  0  0  0  0  0  0
   -0.3209    0.2471   -0.2385 C   0  0  0  0  0  0  0  0  0  0  0  0
    1.1211    0.0370   -0.3089 C   0  0  0  0  0  0  0  0  0  0  0  0
    1.8249    1.1454    0.1703 C   0  0  0  0  0  0  0  0  0  0  0  0
    1.0904    2.6216    0.7920 Cl  0  0  0  0  0  0  0  0  0  0  0  0
    3.2171    1.1597    0.1912 C   0  0  0  0  0  0  0  0  0  0  0  0
    3.8967    0.0599   -0.2693 C   0  0  0  0  0  0  0  0  0  0  0  0
    3.2138   -1.0300   -0.7403 C   0  0  0  0  0  0  0  0  0  0  0  0
    1.8390   -1.0519   -0.7644 C   0  0  0  0  0  0  0  0  0  0  0  0
    0.8243   -2.3606   -1.3314 Cl  0  0  0  0  0  0  0  0  0  0  0  0
   -2.3818   -1.0793   -1.2203 H   0  0  0  0  0  0  0  0  0  0  0  0
   -4.2182   -0.2223   -1.3081 H   0  0  0  0  0  0  0  0  0  0  0  0
   -4.5147    0.7763    1.6434 H   0  0  0  0  0  0  0  0  0  0  0  0
   -4.5254   -0.0728    2.1104 H   0  0  0  0  0  0  0  0  0  0  0  0
   -0.6626    0.6758   -1.1889 H   0  0  0  0  0  0  0  0  0  0  0  0
    3.8029    1.9937    0.5518 H   0  0  0  0  0  0  0  0  0  0  0  0
    4.9809    0.0626   -0.2574 H   0  0  0  0  0  0  0  0  0  0  0  0
    3.7009   -1.9314   -1.1193 H   0  0  0  0  0  0  0  0  0  0  0  0
  1  2  1  0
  2  3  1  0
  2  4  2  3
  4  5  1  0
  5  6  2  3
  6  7  1  0
  7  8  2  0
  8  9  1  0
  8 10  1  0
 10 11  2  0
 11 12  1  0
 12 13  2  0
 13 14  1  0
 13  7  1  0
  1 15  1  0
  1 16  1  0
  3 17  1  0
  3 18  1  0
  6 19  1  0
 10 20  1  0
 11 21  1  0
 12 22  1  0
M  END
$$$$
