@<TRIPOS>MOLECULE
*****
 22 22 0 0 0
SMALL
GASTEIGER

@<TRIPOS>ATOM
      1 N          -3.2838   -0.5805   -1.0544 N.pl3   1  UNL1       -0.2874
      2 C          -2.9075   -0.2639    0.2753 C.cat   1  UNL1        0.4041
      3 N          -3.8816   -0.0035    1.3030 N.pl3   1  UNL1       -0.2874
      4 N          -2.0852   -0.0425    1.2402 N.pl3   1  UNL1        0.0441
      5 N          -0.7302   -0.1404    0.9196 N.2     1  UNL1       -0.0784
      6 C          -0.3209    0.2471   -0.2385 C.2     1  UNL1        0.0762
      7 C           1.1211    0.0370   -0.3089 C.ar    1  UNL1        0.0327
      8 C           1.8249    1.1454    0.1703 C.ar    1  UNL1        0.0510
      9 CL          1.0904    2.6216    0.7920 Cl      1  UNL1       -0.0828
     10 C           3.2171    1.1597    0.1912 C.ar    1  UNL1       -0.0427
     11 C           3.8967    0.0599   -0.2693 C.ar    1  UNL1       -0.0590
     12 C           3.2138   -1.0300   -0.7403 C.ar    1  UNL1       -0.0427
     13 C           1.8390   -1.0519   -0.7644 C.ar    1  UNL1        0.0510
     14 CL          0.8243   -2.3606   -1.3314 Cl      1  UNL1       -0.0828
     15 H          -2.3818   -1.0793   -1.2203 H       1  UNL1        0.2547
     16 H          -4.2182   -0.2223   -1.3081 H       1  UNL1        0.2547
     17 H          -4.5147    0.7763    1.6434 H       1  UNL1        0.2547
     18 H          -4.5254   -0.0728    2.1104 H       1  UNL1        0.2547
     19 H          -0.6626    0.6758   -1.1889 H       1  UNL1        0.0868
     20 H           3.8029    1.9937    0.5518 H       1  UNL1        0.0632
     21 H           4.9809    0.0626   -0.2574 H       1  UNL1        0.0618
     22 H           3.7009   -1.9314   -1.1193 H       1  UNL1        0.0632
@<TRIPOS>BOND
     1     1     2    1
     2     2     3    1
     3     2     4    2
     4     4     5    1
     5     5     6    2
     6     6     7    1
     7     7     8   ar
     8     8     9    1
     9     8    10   ar
    10    10    11   ar
    11    11    12   ar
    12    12    13   ar
    13    13    14    1
    14    13     7   ar
    15     1    15    1
    16     1    16    1
    17     3    17    1
    18     3    18    1
    19     6    19    1
    20    10    20    1
    21    11    21    1
    22    12    22    1
