
     RDKit          3D

 92 95  0  0  0  0  0  0  0  0999 V2000
    0.2572   -1.8211   -2.5008 C   0  0  0  0  0  0  0  0  0  0  0  0
    0.0868   -1.5002   -1.0629 C   0  0  0  0  0  0  0  0  0  0  0  0
   -0.1855   -2.4533   -0.2936 O   0  0  0  0  0  0  0  0  0  0  0  0
    0.2224   -0.1880   -0.5752 N   0  0  0  0  0  0  0  0  0  0  0  0
    0.0616    0.1384    0.8175 C   0  0  1  0  0  0  0  0  0  0  0  0
    1.2961    0.7346    1.4420 C   0  0  0  0  0  0  0  0  0  0  0  0
    2.4635   -0.1749    1.3816 C   0  0  0  0  0  0  0  0  0  0  0  0
    2.4444   -1.3035    0.8335 O   0  0  0  0  0  0  0  0  0  0  0  0
    3.7061    0.2091    1.9692 N   0  0  0  0  0  0  0  0  0  0  0  0
    4.8882   -0.5868    1.9729 C   0  0  0  0  0  0  0  0  0  0  0  0
    5.4209   -0.9278    0.5930 C   0  0  0  0  0  0  0  0  0  0  0  0
    6.6706   -1.7784    0.8353 C   0  0  0  0  0  0  0  0  0  0  0  0
    7.3372   -2.1951   -0.4373 C   0  0  0  0  0  0  0  0  0  0  0  0
    8.4524   -2.9503   -0.1786 O   0  0  0  0  0  0  0  0  0  0  0  0
    9.4677   -2.3480    0.5038 C   0  0  0  0  0  0  0  0  0  0  0  0
   10.0793   -1.1888   -0.2167 C   0  0  0  0  0  0  0  0  0  0  0  0
   11.1359   -1.4045   -1.0915 C   0  0  0  0  0  0  0  0  0  0  0  0
   11.6878   -0.3269   -1.7385 C   0  0  0  0  0  0  0  0  0  0  0  0
   11.2331    0.9497   -1.5509 C   0  0  0  0  0  0  0  0  0  0  0  0
   10.1890    1.1610   -0.6859 C   0  0  0  0  0  0  0  0  0  0  0  0
    9.6109    0.0752   -0.0153 C   0  0  0  0  0  0  0  0  0  0  0  0
   -1.1434    0.9640    1.0932 C   0  0  0  0  0  0  0  0  0  0  0  0
   -1.3626    1.3026    2.2770 O   0  0  0  0  0  0  0  0  0  0  0  0
   -2.0720    1.4045    0.1264 N   0  0  0  0  0  0  0  0  0  0  0  0
   -3.2189    2.1957    0.4203 C   0  0  1  0  0  0  0  0  0  0  0  0
   -3.1020    3.5096   -0.3223 C   0  0  0  0  0  0  0  0  0  0  0  0
   -4.3103    4.3968   -0.0352 C   0  0  0  0  0  0  0  0  0  0  0  0
   -4.4209    4.6984    1.4367 C   0  0  0  0  0  0  0  0  0  0  0  0
   -4.1061    5.6940   -0.7823 C   0  0  0  0  0  0  0  0  0  0  0  0
   -4.5934    1.5244    0.0711 B   0  0  0  0  0  0  0  0  0  0  0  0
   -5.7327    1.2618    0.9280 O   0  0  0  0  0  0  0  0  0  0  0  0
   -6.3245    0.0909    0.4705 C   0  0  2  0  0  0  0  0  0  0  0  0
   -5.8528   -1.1318    1.2030 C   0  0  0  0  0  0  0  0  0  0  0  0
   -5.6316   -2.3183    0.3009 C   0  0  2  0  0  0  0  0  0  0  0  0
   -4.6178   -1.9582   -0.7859 C   0  0  0  0  0  0  0  0  0  0  0  0
   -5.8222   -1.3441   -1.5193 C   0  0  1  0  0  0  0  0  0  0  0  0
   -6.6370   -2.3944   -0.8256 C   0  0  0  0  0  0  0  0  0  0  0  0
   -8.0418   -2.1080   -0.4971 C   0  0  0  0  0  0  0  0  0  0  0  0
   -6.4538   -3.7276   -1.5497 C   0  0  0  0  0  0  0  0  0  0  0  0
   -5.9888    0.0383   -0.9993 C   0  0  1  0  0  0  0  0  0  0  0  0
   -7.0268    0.8328   -1.7484 C   0  0  0  0  0  0  0  0  0  0  0  0
   -4.7715    0.7023   -1.1219 O   0  0  0  0  0  0  0  0  0  0  0  0
    0.8434   -1.0190   -2.9790 H   0  0  0  0  0  0  0  0  0  0  0  0
    0.8296   -2.7712   -2.5458 H   0  0  0  0  0  0  0  0  0  0  0  0
   -0.7077   -1.8767   -3.0266 H   0  0  0  0  0  0  0  0  0  0  0  0
    0.4484    0.5731   -1.2507 H   0  0  0  0  0  0  0  0  0  0  0  0
   -0.1133   -0.8367    1.3592 H   0  0  0  0  0  0  0  0  0  0  0  0
    1.6094    1.6753    0.9392 H   0  0  0  0  0  0  0  0  0  0  0  0
    1.1372    0.9954    2.4976 H   0  0  0  0  0  0  0  0  0  0  0  0
    3.7211    1.1581    2.4286 H   0  0  0  0  0  0  0  0  0  0  0  0
    5.6979   -0.0683    2.5146 H   0  0  0  0  0  0  0  0  0  0  0  0
    4.7500   -1.5703    2.4882 H   0  0  0  0  0  0  0  0  0  0  0  0
    5.7103   -0.0450    0.0214 H   0  0  0  0  0  0  0  0  0  0  0  0
    4.6850   -1.5783    0.1043 H   0  0  0  0  0  0  0  0  0  0  0  0
    6.3454   -2.7466    1.3382 H   0  0  0  0  0  0  0  0  0  0  0  0
    7.3547   -1.2992    1.5291 H   0  0  0  0  0  0  0  0  0  0  0  0
    6.6092   -2.8017   -1.0257 H   0  0  0  0  0  0  0  0  0  0  0  0
    7.5782   -1.3144   -1.0765 H   0  0  0  0  0  0  0  0  0  0  0  0
   10.2933   -3.1142    0.5922 H   0  0  0  0  0  0  0  0  0  0  0  0
    9.2243   -2.0762    1.5530 H   0  0  0  0  0  0  0  0  0  0  0  0
   11.5004   -2.4082   -1.2450 H   0  0  0  0  0  0  0  0  0  0  0  0
   12.5226   -0.5535   -2.4204 H   0  0  0  0  0  0  0  0  0  0  0  0
   11.7166    1.7675   -2.0964 H   0  0  0  0  0  0  0  0  0  0  0  0
    9.8031    2.1660   -0.5149 H   0  0  0  0  0  0  0  0  0  0  0  0
    8.7879    0.3290    0.6549 H   0  0  0  0  0  0  0  0  0  0  0  0
   -1.9104    1.1350   -0.8684 H   0  0  0  0  0  0  0  0  0  0  0  0
   -3.1974    2.4186    1.5167 H   0  0  0  0  0  0  0  0  0  0  0  0
   -2.1831    4.0604   -0.0327 H   0  0  0  0  0  0  0  0  0  0  0  0
   -3.0503    3.3428   -1.4168 H   0  0  0  0  0  0  0  0  0  0  0  0
   -5.2360    3.9102   -0.4246 H   0  0  0  0  0  0  0  0  0  0  0  0
   -4.9570    3.9465    2.0146 H   0  0  0  0  0  0  0  0  0  0  0  0
   -3.3996    4.9139    1.8051 H   0  0  0  0  0  0  0  0  0  0  0  0
   -4.9812    5.6730    1.5190 H   0  0  0  0  0  0  0  0  0  0  0  0
   -3.2606    6.2389   -0.2995 H   0  0  0  0  0  0  0  0  0  0  0  0
   -3.9052    5.5180   -1.8646 H   0  0  0  0  0  0  0  0  0  0  0  0
   -4.9995    6.3651   -0.6623 H   0  0  0  0  0  0  0  0  0  0  0  0
   -7.4143    0.1959    0.6534 H   0  0  0  0  0  0  0  0  0  0  0  0
   -4.8642   -0.9227    1.6934 H   0  0  0  0  0  0  0  0  0  0  0  0
   -6.5357   -1.4358    2.0169 H   0  0  0  0  0  0  0  0  0  0  0  0
   -5.4378   -3.2324    0.8504 H   0  0  0  0  0  0  0  0  0  0  0  0
   -4.1704   -2.8096   -1.3048 H   0  0  0  0  0  0  0  0  0  0  0  0
   -3.8591   -1.2205   -0.4868 H   0  0  0  0  0  0  0  0  0  0  0  0
   -5.7551   -1.3767   -2.6009 H   0  0  0  0  0  0  0  0  0  0  0  0
   -8.3783   -1.1929   -1.0455 H   0  0  0  0  0  0  0  0  0  0  0  0
   -8.2732   -2.0476    0.5872 H   0  0  0  0  0  0  0  0  0  0  0  0
   -8.6876   -2.9245   -0.8888 H   0  0  0  0  0  0  0  0  0  0  0  0
   -5.5803   -4.2860   -1.1991 H   0  0  0  0  0  0  0  0  0  0  0  0
   -6.3857   -3.4974   -2.6375 H   0  0  0  0  0  0  0  0  0  0  0  0
   -7.3594   -4.3602   -1.3943 H   0  0  0  0  0  0  0  0  0  0  0  0
   -7.8592    1.1430   -1.0709 H   0  0  0  0  0  0  0  0  0  0  0  0
   -7.4061    0.2961   -2.6501 H   0  0  0  0  0  0  0  0  0  0  0  0
   -6.5951    1.8099   -2.1013 H   0  0  0  0  0  0  0  0  0  0  0  0
  1  2  1  0
  2  3  2  0
  2  4  1  0
  4  5  1  0
  5  6  1  0
  6  7  1  0
  7  8  2  0
  7  9  1  0
  9 10  1  0
 10 11  1  0
 11 12  1  0
 12 13  1  0
 13 14  1  0
 14 15  1  0
 15 16  1  0
 16 17  2  0
 17 18  1  0
 18 19  2  0
 19 20  1  0
 20 21  2  0
  5 22  1  0
 22 23  2  0
 22 24  1  0
 24 25  1  0
 25 26  1  0
 26 27  1  0
 27 28  1  0
 27 29  1  0
 25 30  1  0
 30 31  1  0
 31 32  1  0
 32 33  1  0
 33 34  1  0
 34 35  1  0
 35 36  1  0
 36 37  1  0
 37 38  1  0
 37 39  1  0
 36 40  1  0
 40 41  1  6
 40 42  1  0
 21 16  1  0
 42 30  1  0
 40 32  1  0
 37 34  1  0
  1 43  1  0
  1 44  1  0
  1 45  1  0
  4 46  1  0
  5 47  1  1
  6 48  1  0
  6 49  1  0
  9 50  1  0
 10 51  1  0
 10 52  1  0
 11 53  1  0
 11 54  1  0
 12 55  1  0
 12 56  1  0
 13 57  1  0
 13 58  1  0
 15 59  1  0
 15 60  1  0
 17 61  1  0
 18 62  1  0
 19 63  1  0
 20 64  1  0
 21 65  1  0
 24 66  1  0
 25 67  1  1
 26 68  1  0
 26 69  1  0
 27 70  1  0
 28 71  1  0
 28 72  1  0
 28 73  1  0
 29 74  1  0
 29 75  1  0
 29 76  1  0
 32 77  1  6
 33 78  1  0
 33 79  1  0
 34 80  1  1
 35 81  1  0
 35 82  1  0
 36 83  1  6
 38 84  1  0
 38 85  1  0
 38 86  1  0
 39 87  1  0
 39 88  1  0
 39 89  1  0
 41 90  1  0
 41 91  1  0
 41 92  1  0
M  END
$$$$
