@<TRIPOS>MOLECULE
*****
 92 95 0 0 0
SMALL
GASTEIGER

@<TRIPOS>ATOM
      1 C           0.2572   -1.8211   -2.5008 C.3     1  UNL1        0.0000
      2 C           0.0868   -1.5002   -1.0629 C.2     1  UNL1        0.0000
      3 O          -0.1855   -2.4533   -0.2936 O.2     1  UNL1        0.0000
      4 N           0.2224   -0.1880   -0.5752 N.am    1  UNL1        0.0000
      5 C           0.0616    0.1384    0.8175 C.3     1  UNL1        0.0000
      6 C           1.2961    0.7346    1.4420 C.3     1  UNL1        0.0000
      7 C           2.4635   -0.1749    1.3816 C.2     1  UNL1        0.0000
      8 O           2.4444   -1.3035    0.8335 O.2     1  UNL1        0.0000
      9 N           3.7061    0.2091    1.9692 N.am    1  UNL1        0.0000
     10 C           4.8882   -0.5868    1.9729 C.3     1  UNL1        0.0000
     11 C           5.4209   -0.9278    0.5930 C.3     1  UNL1        0.0000
     12 C           6.6706   -1.7784    0.8353 C.3     1  UNL1        0.0000
     13 C           7.3372   -2.1951   -0.4373 C.3     1  UNL1        0.0000
     14 O           8.4524   -2.9503   -0.1786 O.3     1  UNL1        0.0000
     15 C           9.4677   -2.3480    0.5038 C.3     1  UNL1        0.0000
     16 C          10.0793   -1.1888   -0.2167 C.ar    1  UNL1        0.0000
     17 C          11.1359   -1.4045   -1.0915 C.ar    1  UNL1        0.0000
     18 C          11.6878   -0.3269   -1.7385 C.ar    1  UNL1        0.0000
     19 C          11.2331    0.9497   -1.5509 C.ar    1  UNL1        0.0000
     20 C          10.1890    1.1610   -0.6859 C.ar    1  UNL1        0.0000
     21 C           9.6109    0.0752   -0.0153 C.ar    1  UNL1        0.0000
     22 C          -1.1434    0.9640    1.0932 C.2     1  UNL1        0.0000
     23 O          -1.3626    1.3026    2.2770 O.2     1  UNL1        0.0000
     24 N          -2.0720    1.4045    0.1264 N.am    1  UNL1        0.0000
     25 C          -3.2189    2.1957    0.4203 C.3     1  UNL1        0.0000
     26 C          -3.1020    3.5096   -0.3223 C.3     1  UNL1        0.0000
     27 C          -4.3103    4.3968   -0.0352 C.3     1  UNL1        0.0000
     28 C          -4.4209    4.6984    1.4367 C.3     1  UNL1        0.0000
     29 C          -4.1061    5.6940   -0.7823 C.3     1  UNL1        0.0000
     30 B          -4.5934    1.5244    0.0711 B       1  UNL1        0.0000
     31 O          -5.7327    1.2618    0.9280 O.3     1  UNL1        0.0000
     32 C          -6.3245    0.0909    0.4705 C.3     1  UNL1        0.0000
     33 C          -5.8528   -1.1318    1.2030 C.3     1  UNL1        0.0000
     34 C          -5.6316   -2.3183    0.3009 C.3     1  UNL1        0.0000
     35 C          -4.6178   -1.9582   -0.7859 C.3     1  UNL1        0.0000
     36 C          -5.8222   -1.3441   -1.5193 C.3     1  UNL1        0.0000
     37 C          -6.6370   -2.3944   -0.8256 C.3     1  UNL1        0.0000
     38 C          -8.0418   -2.1080   -0.4971 C.3     1  UNL1        0.0000
     39 C          -6.4538   -3.7276   -1.5497 C.3     1  UNL1        0.0000
     40 C          -5.9888    0.0383   -0.9993 C.3     1  UNL1        0.0000
     41 C          -7.0268    0.8328   -1.7484 C.3     1  UNL1        0.0000
     42 O          -4.7715    0.7023   -1.1219 O.3     1  UNL1        0.0000
     43 H           0.8434   -1.0190   -2.9790 H       1  UNL1        0.0000
     44 H           0.8296   -2.7712   -2.5458 H       1  UNL1        0.0000
     45 H          -0.7077   -1.8767   -3.0266 H       1  UNL1        0.0000
     46 H           0.4484    0.5731   -1.2507 H       1  UNL1        0.0000
     47 H          -0.1133   -0.8367    1.3592 H       1  UNL1        0.0000
     48 H           1.6094    1.6753    0.9392 H       1  UNL1        0.0000
     49 H           1.1372    0.9954    2.4976 H       1  UNL1        0.0000
     50 H           3.7211    1.1581    2.4286 H       1  UNL1        0.0000
     51 H           5.6979   -0.0683    2.5146 H       1  UNL1        0.0000
     52 H           4.7500   -1.5703    2.4882 H       1  UNL1        0.0000
     53 H           5.7103   -0.0450    0.0214 H       1  UNL1        0.0000
     54 H           4.6850   -1.5783    0.1043 H       1  UNL1        0.0000
     55 H           6.3454   -2.7466    1.3382 H       1  UNL1        0.0000
     56 H           7.3547   -1.2992    1.5291 H       1  UNL1        0.0000
     57 H           6.6092   -2.8017   -1.0257 H       1  UNL1        0.0000
     58 H           7.5782   -1.3144   -1.0765 H       1  UNL1        0.0000
     59 H          10.2933   -3.1142    0.5922 H       1  UNL1        0.0000
     60 H           9.2243   -2.0762    1.5530 H       1  UNL1        0.0000
     61 H          11.5004   -2.4082   -1.2450 H       1  UNL1        0.0000
     62 H          12.5226   -0.5535   -2.4204 H       1  UNL1        0.0000
     63 H          11.7166    1.7675   -2.0964 H       1  UNL1        0.0000
     64 H           9.8031    2.1660   -0.5149 H       1  UNL1        0.0000
     65 H           8.7879    0.3290    0.6549 H       1  UNL1        0.0000
     66 H          -1.9104    1.1350   -0.8684 H       1  UNL1        0.0000
     67 H          -3.1974    2.4186    1.5167 H       1  UNL1        0.0000
     68 H          -2.1831    4.0604   -0.0327 H       1  UNL1        0.0000
     69 H          -3.0503    3.3428   -1.4168 H       1  UNL1        0.0000
     70 H          -5.2360    3.9102   -0.4246 H       1  UNL1        0.0000
     71 H          -4.9570    3.9465    2.0146 H       1  UNL1        0.0000
     72 H          -3.3996    4.9139    1.8051 H       1  UNL1        0.0000
     73 H          -4.9812    5.6730    1.5190 H       1  UNL1        0.0000
     74 H          -3.2606    6.2389   -0.2995 H       1  UNL1        0.0000
     75 H          -3.9052    5.5180   -1.8646 H       1  UNL1        0.0000
     76 H          -4.9995    6.3651   -0.6623 H       1  UNL1        0.0000
     77 H          -7.4143    0.1959    0.6534 H       1  UNL1        0.0000
     78 H          -4.8642   -0.9227    1.6934 H       1  UNL1        0.0000
     79 H          -6.5357   -1.4358    2.0169 H       1  UNL1        0.0000
     80 H          -5.4378   -3.2324    0.8504 H       1  UNL1        0.0000
     81 H          -4.1704   -2.8096   -1.3048 H       1  UNL1        0.0000
     82 H          -3.8591   -1.2205   -0.4868 H       1  UNL1        0.0000
     83 H          -5.7551   -1.3767   -2.6009 H       1  UNL1        0.0000
     84 H          -8.3783   -1.1929   -1.0455 H       1  UNL1        0.0000
     85 H          -8.2732   -2.0476    0.5872 H       1  UNL1        0.0000
     86 H          -8.6876   -2.9245   -0.8888 H       1  UNL1        0.0000
     87 H          -5.5803   -4.2860   -1.1991 H       1  UNL1        0.0000
     88 H          -6.3857   -3.4974   -2.6375 H       1  UNL1        0.0000
     89 H          -7.3594   -4.3602   -1.3943 H       1  UNL1        0.0000
     90 H          -7.8592    1.1430   -1.0709 H       1  UNL1        0.0000
     91 H          -7.4061    0.2961   -2.6501 H       1  UNL1        0.0000
     92 H          -6.5951    1.8099   -2.1013 H       1  UNL1        0.0000
@<TRIPOS>BOND
     1     1     2    1
     2     2     3    2
     3     2     4   am
     4     4     5    1
     5     5     6    1
     6     6     7    1
     7     7     8    2
     8     7     9   am
     9     9    10    1
    10    10    11    1
    11    11    12    1
    12    12    13    1
    13    13    14    1
    14    14    15    1
    15    15    16    1
    16    16    17   ar
    17    17    18   ar
    18    18    19   ar
    19    19    20   ar
    20    20    21   ar
    21     5    22    1
    22    22    23    2
    23    22    24   am
    24    24    25    1
    25    25    26    1
    26    26    27    1
    27    27    28    1
    28    27    29    1
    29    25    30    1
    30    30    31    1
    31    31    32    1
    32    32    33    1
    33    33    34    1
    34    34    35    1
    35    35    36    1
    36    36    37    1
    37    37    38    1
    38    37    39    1
    39    36    40    1
    40    40    41    1
    41    40    42    1
    42    21    16   ar
    43    42    30    1
    44    40    32    1
    45    37    34    1
    46     1    43    1
    47     1    44    1
    48     1    45    1
    49     4    46    1
    50     5    47    1
    51     6    48    1
    52     6    49    1
    53     9    50    1
    54    10    51    1
    55    10    52    1
    56    11    53    1
    57    11    54    1
    58    12    55    1
    59    12    56    1
    60    13    57    1
    61    13    58    1
    62    15    59    1
    63    15    60    1
    64    17    61    1
    65    18    62    1
    66    19    63    1
    67    20    64    1
    68    21    65    1
    69    24    66    1
    70    25    67    1
    71    26    68    1
    72    26    69    1
    73    27    70    1
    74    28    71    1
    75    28    72    1
    76    28    73    1
    77    29    74    1
    78    29    75    1
    79    29    76    1
    80    32    77    1
    81    33    78    1
    82    33    79    1
    83    34    80    1
    84    35    81    1
    85    35    82    1
    86    36    83    1
    87    38    84    1
    88    38    85    1
    89    38    86    1
    90    39    87    1
    91    39    88    1
    92    39    89    1
    93    41    90    1
    94    41    91    1
    95    41    92    1
