
     RDKit          3D

 53 56  0  0  0  0  0  0  0  0999 V2000
   -7.1580    3.0463    1.0759 C   0  0  0  0  0  0  0  0  0  0  0  0
   -7.4455    1.6737    1.2824 O   0  0  0  0  0  0  0  0  0  0  0  0
   -6.4825    0.6996    1.0386 C   0  0  0  0  0  0  0  0  0  0  0  0
   -6.8183   -0.6204    1.2570 C   0  0  0  0  0  0  0  0  0  0  0  0
   -5.8490   -1.5693    1.0091 C   0  0  0  0  0  0  0  0  0  0  0  0
   -6.1323   -2.9335    1.2135 O   0  0  0  0  0  0  0  0  0  0  0  0
   -5.1413   -3.9059    0.9602 C   0  0  0  0  0  0  0  0  0  0  0  0
   -4.6314   -1.2037    0.5724 N   0  0  0  0  0  0  0  0  0  0  0  0
   -4.2994    0.0808    0.3580 C   0  0  0  0  0  0  0  0  0  0  0  0
   -2.9759    0.4751   -0.1164 C   0  0  0  0  0  0  0  0  0  0  0  0
   -2.0142   -0.4808   -0.3616 C   0  0  0  0  0  0  0  0  0  0  0  0
   -0.7462   -0.0999   -0.8164 C   0  0  0  0  0  0  0  0  0  0  0  0
   -0.4575    1.2103   -1.0179 N   0  0  0  0  0  0  0  0  0  0  0  0
    0.6444    1.8561   -1.4404 C   0  0  0  0  0  0  0  0  0  0  0  0
    1.9115    1.2132   -1.8183 C   0  0  0  0  0  0  0  0  0  0  0  0
    2.5375    1.5910   -2.9878 C   0  0  0  0  0  0  0  0  0  0  0  0
    3.7399    1.0182   -3.3852 C   0  0  0  0  0  0  0  0  0  0  0  0
    4.3252    0.0520   -2.5998 C   0  0  0  0  0  0  0  0  0  0  0  0
    3.7288   -0.3518   -1.4229 C   0  0  0  0  0  0  0  0  0  0  0  0
    4.3435   -1.3509   -0.6205 N   0  0  0  0  0  0  0  0  0  0  0  0
    5.2826   -1.0009    0.4110 C   0  0  0  0  0  0  0  0  0  0  0  0
    5.5098    0.2206    0.5426 O   0  0  0  0  0  0  0  0  0  0  0  0
    5.8998   -1.9814    1.2143 N   0  0  0  0  0  0  0  0  0  0  0  0
    6.8416   -1.6450    2.2330 C   0  0  0  0  0  0  0  0  0  0  0  0
    8.0911   -0.9625    1.7846 C   0  0  0  0  0  0  0  0  0  0  0  0
    8.7899   -1.7619    0.8813 F   0  0  0  0  0  0  0  0  0  0  0  0
    8.9093   -0.7548    2.9119 F   0  0  0  0  0  0  0  0  0  0  0  0
    7.9182    0.2786    1.2344 F   0  0  0  0  0  0  0  0  0  0  0  0
    2.5342    0.2454   -1.0679 C   0  0  0  0  0  0  0  0  0  0  0  0
    0.3943    3.2137   -1.4674 C   0  0  0  0  0  0  0  0  0  0  0  0
   -0.8620    3.3859   -1.0597 N   0  0  0  0  0  0  0  0  0  0  0  0
   -1.3642    2.1715   -0.7918 C   0  0  0  0  0  0  0  0  0  0  0  0
   -2.6290    1.7860   -0.3377 C   0  0  0  0  0  0  0  0  0  0  0  0
   -5.2421    1.0024    0.5993 N   0  0  0  0  0  0  0  0  0  0  0  0
   -7.5957    3.6129    1.9287 H   0  0  0  0  0  0  0  0  0  0  0  0
   -6.0550    3.1523    1.0918 H   0  0  0  0  0  0  0  0  0  0  0  0
   -7.5674    3.3958    0.1013 H   0  0  0  0  0  0  0  0  0  0  0  0
   -7.8008   -0.9310    1.6107 H   0  0  0  0  0  0  0  0  0  0  0  0
   -4.4078   -3.8719    1.8179 H   0  0  0  0  0  0  0  0  0  0  0  0
   -4.5348   -3.5763    0.0667 H   0  0  0  0  0  0  0  0  0  0  0  0
   -5.5660   -4.8983    0.8051 H   0  0  0  0  0  0  0  0  0  0  0  0
   -2.2567   -1.5170   -0.1973 H   0  0  0  0  0  0  0  0  0  0  0  0
    0.0061   -0.8275   -1.0134 H   0  0  0  0  0  0  0  0  0  0  0  0
    2.1269    2.3432   -3.6446 H   0  0  0  0  0  0  0  0  0  0  0  0
    4.2494    1.2961   -4.2949 H   0  0  0  0  0  0  0  0  0  0  0  0
    5.2621   -0.4220   -2.8702 H   0  0  0  0  0  0  0  0  0  0  0  0
    4.1435   -2.3603   -0.7431 H   0  0  0  0  0  0  0  0  0  0  0  0
    5.6241   -2.9805    1.0180 H   0  0  0  0  0  0  0  0  0  0  0  0
    6.3179   -0.9064    2.9152 H   0  0  0  0  0  0  0  0  0  0  0  0
    7.0776   -2.5619    2.8277 H   0  0  0  0  0  0  0  0  0  0  0  0
    2.0827   -0.0753   -0.1457 H   0  0  0  0  0  0  0  0  0  0  0  0
    1.1199    3.9892   -1.7745 H   0  0  0  0  0  0  0  0  0  0  0  0
   -3.3790    2.5410   -0.1474 H   0  0  0  0  0  0  0  0  0  0  0  0
  1  2  1  0
  2  3  1  0
  3  4  2  0
  4  5  1  0
  5  6  1  0
  6  7  1  0
  5  8  2  0
  8  9  1  0
  9 10  1  0
 10 11  1  0
 11 12  2  0
 12 13  1  0
 13 14  1  0
 14 15  1  0
 15 16  2  0
 16 17  1  0
 17 18  2  0
 18 19  1  0
 19 20  1  0
 20 21  1  0
 21 22  2  0
 21 23  1  0
 23 24  1  0
 24 25  1  0
 25 26  1  0
 25 27  1  0
 25 28  1  0
 19 29  2  0
 14 30  2  0
 30 31  1  0
 31 32  2  0
 32 33  1  0
  9 34  2  0
 34  3  1  0
 33 10  2  0
 32 13  1  0
 29 15  1  0
  1 35  1  0
  1 36  1  0
  1 37  1  0
  4 38  1  0
  7 39  1  0
  7 40  1  0
  7 41  1  0
 11 42  1  0
 12 43  1  0
 16 44  1  0
 17 45  1  0
 18 46  1  0
 20 47  1  0
 23 48  1  0
 24 49  1  0
 24 50  1  0
 29 51  1  0
 30 52  1  0
 33 53  1  0
M  END
$$$$
