@<TRIPOS>MOLECULE
*****
 53 56 0 0 0
SMALL
GASTEIGER

@<TRIPOS>ATOM
      1 C          -7.1580    3.0463    1.0759 C.3     1  UNL1        0.0804
      2 O          -7.4455    1.6737    1.2824 O.3     1  UNL1       -0.4795
      3 C          -6.4825    0.6996    1.0386 C.ar    1  UNL1        0.2215
      4 C          -6.8183   -0.6204    1.2570 C.ar    1  UNL1        0.0615
      5 C          -5.8490   -1.5693    1.0091 C.ar    1  UNL1        0.2215
      6 O          -6.1323   -2.9335    1.2135 O.3     1  UNL1       -0.4795
      7 C          -5.1413   -3.9059    0.9602 C.3     1  UNL1        0.0804
      8 N          -4.6314   -1.2037    0.5724 N.ar    1  UNL1       -0.1929
      9 C          -4.2994    0.0808    0.3580 C.ar    1  UNL1        0.1673
     10 C          -2.9759    0.4751   -0.1164 C.ar    1  UNL1        0.0242
     11 C          -2.0142   -0.4808   -0.3616 C.ar    1  UNL1       -0.0343
     12 C          -0.7462   -0.0999   -0.8164 C.ar    1  UNL1        0.0124
     13 N          -0.4575    1.2103   -1.0179 N.ar    1  UNL1       -0.2993
     14 C           0.6444    1.8561   -1.4404 C.ar    1  UNL1        0.0732
     15 C           1.9115    1.2132   -1.8183 C.ar    1  UNL1        0.0021
     16 C           2.5375    1.5910   -2.9878 C.ar    1  UNL1       -0.0525
     17 C           3.7399    1.0182   -3.3852 C.ar    1  UNL1       -0.0594
     18 C           4.3252    0.0520   -2.5998 C.ar    1  UNL1       -0.0404
     19 C           3.7288   -0.3518   -1.4229 C.ar    1  UNL1        0.0354
     20 N           4.3435   -1.3509   -0.6205 N.am    1  UNL1       -0.2695
     21 C           5.2826   -1.0009    0.4110 C.2     1  UNL1        0.3041
     22 O           5.5098    0.2206    0.5426 O.2     1  UNL1       -0.2525
     23 N           5.8998   -1.9814    1.2143 N.am    1  UNL1       -0.2906
     24 C           6.8416   -1.6450    2.2330 C.3     1  UNL1        0.1083
     25 C           8.0911   -0.9625    1.7846 C.3     1  UNL1        0.4050
     26 F           8.7899   -1.7619    0.8813 F       1  UNL1       -0.1690
     27 F           8.9093   -0.7548    2.9119 F       1  UNL1       -0.1690
     28 F           7.9182    0.2786    1.2344 F       1  UNL1       -0.1690
     29 C           2.5342    0.2454   -1.0679 C.ar    1  UNL1       -0.0313
     30 C           0.3943    3.2137   -1.4674 C.ar    1  UNL1        0.0543
     31 N          -0.8620    3.3859   -1.0597 N.ar    1  UNL1       -0.2355
     32 C          -1.3642    2.1715   -0.7918 C.ar    1  UNL1        0.1387
     33 C          -2.6290    1.7860   -0.3377 C.ar    1  UNL1       -0.0081
     34 N          -5.2421    1.0024    0.5993 N.ar    1  UNL1       -0.1929
     35 H          -7.5957    3.6129    1.9287 H       1  UNL1        0.0660
     36 H          -6.0550    3.1523    1.0918 H       1  UNL1        0.0660
     37 H          -7.5674    3.3958    0.1013 H       1  UNL1        0.0660
     38 H          -7.8008   -0.9310    1.6107 H       1  UNL1        0.0724
     39 H          -4.4078   -3.8719    1.8179 H       1  UNL1        0.0660
     40 H          -4.5348   -3.5763    0.0667 H       1  UNL1        0.0660
     41 H          -5.5660   -4.8983    0.8051 H       1  UNL1        0.0660
     42 H          -2.2567   -1.5170   -0.1973 H       1  UNL1        0.0639
     43 H           0.0061   -0.8275   -1.0134 H       1  UNL1        0.0813
     44 H           2.1269    2.3432   -3.6446 H       1  UNL1        0.0624
     45 H           4.2494    1.2961   -4.2949 H       1  UNL1        0.0618
     46 H           5.2621   -0.4220   -2.8702 H       1  UNL1        0.0636
     47 H           4.1435   -2.3603   -0.7431 H       1  UNL1        0.1564
     48 H           5.6241   -2.9805    1.0180 H       1  UNL1        0.1506
     49 H           6.3179   -0.9064    2.9152 H       1  UNL1        0.0551
     50 H           7.0776   -2.5619    2.8277 H       1  UNL1        0.0551
     51 H           2.0827   -0.0753   -0.1457 H       1  UNL1        0.0643
     52 H           1.1199    3.9892   -1.7745 H       1  UNL1        0.0852
     53 H          -3.3790    2.5410   -0.1474 H       1  UNL1        0.0661
@<TRIPOS>BOND
     1     1     2    1
     2     2     3    1
     3     3     4   ar
     4     4     5   ar
     5     5     6    1
     6     6     7    1
     7     5     8   ar
     8     8     9   ar
     9     9    10    1
    10    10    11   ar
    11    11    12   ar
    12    12    13   ar
    13    13    14   ar
    14    14    15    1
    15    15    16   ar
    16    16    17   ar
    17    17    18   ar
    18    18    19   ar
    19    19    20    1
    20    20    21   am
    21    21    22    2
    22    21    23   am
    23    23    24    1
    24    24    25    1
    25    25    26    1
    26    25    27    1
    27    25    28    1
    28    19    29   ar
    29    14    30   ar
    30    30    31   ar
    31    31    32   ar
    32    32    33   ar
    33     9    34   ar
    34    34     3   ar
    35    33    10   ar
    36    32    13   ar
    37    29    15   ar
    38     1    35    1
    39     1    36    1
    40     1    37    1
    41     4    38    1
    42     7    39    1
    43     7    40    1
    44     7    41    1
    45    11    42    1
    46    12    43    1
    47    16    44    1
    48    17    45    1
    49    18    46    1
    50    20    47    1
    51    23    48    1
    52    24    49    1
    53    24    50    1
    54    29    51    1
    55    30    52    1
    56    33    53    1
