@<TRIPOS>MOLECULE
*****
 14 13 0 0 0
SMALL
GASTEIGER

@<TRIPOS>ATOM
      1 C           2.2795    0.7145    0.2636 C.3     1  UNL1        0.0000
      2 C           1.4018   -0.5261    0.3448 C.3     1  UNL1        0.0000
      3 SE         -0.3001   -0.2041    1.1760 Se      1  UNL1        0.0000
      4 C          -1.7146    0.0335   -0.1173 C.2     1  UNL1        0.0000
      5 N          -2.7864   -0.9041   -0.1925 N.pl3   1  UNL1        0.0000
      6 N          -1.8919    0.9637   -1.0082 N.2     1  UNL1        0.0000
      7 H           1.9036    1.4415   -0.4702 H       1  UNL1        0.0000
      8 H           2.3564    1.1324    1.2960 H       1  UNL1        0.0000
      9 H           3.2956    0.3349   -0.0381 H       1  UNL1        0.0000
     10 H           2.0253   -1.2601    0.9275 H       1  UNL1        0.0000
     11 H           1.3298   -0.9597   -0.6658 H       1  UNL1        0.0000
     12 H          -2.9297   -1.9438   -0.3272 H       1  UNL1        0.0000
     13 H          -3.7693   -0.5860   -0.1009 H       1  UNL1        0.0000
     14 H          -1.2003    1.7635   -1.1174 H       1  UNL1        0.0000
@<TRIPOS>BOND
     1     1     2    1
     2     2     3    1
     3     3     4    1
     4     4     5    1
     5     4     6    2
     6     1     7    1
     7     1     8    1
     8     1     9    1
     9     2    10    1
    10     2    11    1
    11     5    12    1
    12     5    13    1
    13     6    14    1
