@<TRIPOS>MOLECULE
*****
 58 61 0 0 0
SMALL
GASTEIGER

@<TRIPOS>ATOM
      1 C           6.8881    2.2982   -0.4843 C.3     1  UNL1        0.0365
      2 O           6.1829    2.2177   -1.6263 O.3     1  UNL1       -0.3814
      3 C           5.6844    1.0721   -2.1046 C.3     1  UNL1        0.0645
      4 C           4.6607    0.3257   -1.2681 C.3     1  UNL1        0.0552
      5 C           5.1254   -0.0898    0.0748 C.3     1  UNL1       -0.0323
      6 C           4.6521   -1.5134    0.2404 C.3     1  UNL1       -0.0370
      7 C           4.6407   -1.9636   -1.2258 C.3     1  UNL1        0.0209
      8 N           4.2031   -0.8359   -1.9385 N.3     1  UNL1       -0.1713
      9 S           2.6037   -0.8288   -2.4879 S.O2    1  UNL1        0.0612
     10 O           2.3919   -2.0378   -3.3774 O.2     1  UNL1       -0.1528
     11 O           2.2771    0.3840   -3.3185 O.2     1  UNL1       -0.1528
     12 C           1.4089   -0.9141   -1.2014 C.ar    1  UNL1        0.1063
     13 C           0.9257    0.2352   -0.6326 C.ar    1  UNL1       -0.0335
     14 C          -0.0120    0.1657    0.3605 C.ar    1  UNL1       -0.0377
     15 C          -0.4851   -1.0535    0.8045 C.ar    1  UNL1        0.0481
     16 C           0.0182   -2.2057    0.2146 C.ar    1  UNL1        0.0502
     17 C           0.9537   -2.1303   -0.7755 C.ar    1  UNL1       -0.0226
     18 C          -0.6303   -3.3446    0.8453 C.2     1  UNL1        0.2496
     19 O          -0.4329   -4.5623    0.5764 O.2     1  UNL1       -0.2817
     20 C          -1.5473   -2.8246    1.8419 C.2     1  UNL1        0.2915
     21 O          -2.2997   -3.4985    2.6053 O.2     1  UNL1       -0.2661
     22 N          -1.4278   -1.3943    1.7856 N.am    1  UNL1       -0.2598
     23 C          -2.1832   -0.4641    2.6262 C.3     1  UNL1        0.0452
     24 C          -3.4751   -0.1155    1.9460 C.ar    1  UNL1       -0.0295
     25 C          -4.5808   -0.8775    2.1793 C.ar    1  UNL1       -0.0536
     26 C          -5.7708   -0.6132    1.5942 C.ar    1  UNL1       -0.0196
     27 C          -5.9160    0.4679    0.7135 C.ar    1  UNL1        0.1206
     28 O          -7.1512    0.6784    0.1511 O.3     1  UNL1       -0.4911
     29 C          -7.5867    1.6586   -0.7045 C.3     1  UNL1        0.0991
     30 C          -7.5720    3.0459   -0.1196 C.3     1  UNL1        0.0375
     31 BR         -8.7638    3.0352    1.4372 Br      1  UNL1       -0.0883
     32 C          -4.7964    1.2258    0.4865 C.ar    1  UNL1       -0.0196
     33 C          -3.5780    0.9452    1.0941 C.ar    1  UNL1       -0.0536
     34 H           7.2256    3.3917   -0.3633 H       1  UNL1        0.0523
     35 H           6.2435    2.1774    0.4378 H       1  UNL1        0.0523
     36 H           7.8047    1.6899   -0.4514 H       1  UNL1        0.0523
     37 H           5.1157    1.3278   -3.0584 H       1  UNL1        0.0576
     38 H           6.4533    0.3450   -2.4786 H       1  UNL1        0.0576
     39 H           3.7694    1.0202   -1.0792 H       1  UNL1        0.0502
     40 H           6.2458   -0.1507    0.1283 H       1  UNL1        0.0282
     41 H           4.7163    0.5496    0.9031 H       1  UNL1        0.0282
     42 H           3.6040   -1.4785    0.6132 H       1  UNL1        0.0279
     43 H           5.3095   -2.1352    0.8653 H       1  UNL1        0.0279
     44 H           5.7189   -2.1631   -1.4899 H       1  UNL1        0.0444
     45 H           4.0270   -2.8718   -1.3114 H       1  UNL1        0.0444
     46 H           1.3078    1.1973   -0.9920 H       1  UNL1        0.0638
     47 H          -0.4029    1.0748    0.8229 H       1  UNL1        0.0637
     48 H           1.3226   -3.0340   -1.2096 H       1  UNL1        0.0645
     49 H          -1.6236    0.4771    2.7204 H       1  UNL1        0.0518
     50 H          -2.3942   -0.9382    3.6047 H       1  UNL1        0.0518
     51 H          -4.4706   -1.7248    2.8676 H       1  UNL1        0.0622
     52 H          -6.6497   -1.2330    1.7913 H       1  UNL1        0.0654
     53 H          -6.9195    1.6908   -1.6267 H       1  UNL1        0.0705
     54 H          -8.6245    1.3934   -1.0434 H       1  UNL1        0.0705
     55 H          -7.9785    3.7801   -0.8669 H       1  UNL1        0.0415
     56 H          -6.6147    3.3752    0.2469 H       1  UNL1        0.0415
     57 H          -4.8619    2.0655   -0.2148 H       1  UNL1        0.0654
     58 H          -2.7313    1.5869    0.8718 H       1  UNL1        0.0622
@<TRIPOS>BOND
     1     1     2    1
     2     2     3    1
     3     3     4    1
     4     4     5    1
     5     5     6    1
     6     6     7    1
     7     7     8    1
     8     8     9    1
     9     9    10    2
    10     9    11    2
    11     9    12    1
    12    12    13   ar
    13    13    14   ar
    14    14    15   ar
    15    15    16   ar
    16    16    17   ar
    17    16    18    1
    18    18    19    2
    19    18    20    1
    20    20    21    2
    21    20    22   am
    22    22    23    1
    23    23    24    1
    24    24    25   ar
    25    25    26   ar
    26    26    27   ar
    27    27    28    1
    28    28    29    1
    29    29    30    1
    30    30    31    1
    31    27    32   ar
    32    32    33   ar
    33     8     4    1
    34    17    12   ar
    35    33    24   ar
    36    22    15    1
    37     1    34    1
    38     1    35    1
    39     1    36    1
    40     3    37    1
    41     3    38    1
    42     4    39    1
    43     5    40    1
    44     5    41    1
    45     6    42    1
    46     6    43    1
    47     7    44    1
    48     7    45    1
    49    13    46    1
    50    14    47    1
    51    17    48    1
    52    23    49    1
    53    23    50    1
    54    25    51    1
    55    26    52    1
    56    29    53    1
    57    29    54    1
    58    30    55    1
    59    30    56    1
    60    32    57    1
    61    33    58    1
