@<TRIPOS>MOLECULE
*****
 30 32 0 0 0
SMALL
GASTEIGER

@<TRIPOS>ATOM
      1 O          -1.5853    3.0644    0.3916 O.2     1  UNL1       -0.2869
      2 C          -1.2605    1.8813    0.1412 C.ar    1  UNL1        0.1966
      3 C           0.0941    1.5616    0.1620 C.ar    1  UNL1        0.0288
      4 C           0.4980    0.2843   -0.1046 C.ar    1  UNL1        0.1392
      5 C           1.9161   -0.0449   -0.0815 C.ar    1  UNL1        0.0176
      6 C           2.9104    0.8569    0.1961 C.ar    1  UNL1       -0.0476
      7 C           4.2642    0.4845    0.2047 C.ar    1  UNL1       -0.0195
      8 C           4.6462   -0.8114   -0.0676 C.ar    1  UNL1        0.1169
      9 O           5.9994   -1.1555   -0.0525 O.3     1  UNL1       -0.5068
     10 C           3.6592   -1.7238   -0.3471 C.ar    1  UNL1       -0.0195
     11 C           2.3392   -1.3549   -0.3542 C.ar    1  UNL1       -0.0476
     12 O          -0.4091   -0.6526   -0.3842 O.2     1  UNL1       -0.4544
     13 C          -1.6915   -0.4033   -0.4163 C.ar    1  UNL1        0.1462
     14 C          -2.5920   -1.4017   -0.7097 C.ar    1  UNL1        0.0231
     15 C          -3.9474   -1.1137   -0.7379 C.ar    1  UNL1        0.1239
     16 O          -4.9135   -2.0701   -1.0262 O.3     1  UNL1       -0.5065
     17 C          -4.4297    0.1696   -0.4754 C.ar    1  UNL1        0.0223
     18 C          -3.4976    1.1414   -0.1859 C.ar    1  UNL1        0.1347
     19 O          -3.9005    2.4581    0.0898 O.3     1  UNL1       -0.5058
     20 C          -2.1483    0.8721   -0.1538 C.ar    1  UNL1        0.1055
     21 H           0.7900    2.3789    0.3993 H       1  UNL1        0.0693
     22 H           2.6717    1.8834    0.4162 H       1  UNL1        0.0626
     23 H           5.0379    1.2291    0.4305 H       1  UNL1        0.0654
     24 H           6.6897   -0.6638    0.4632 H       1  UNL1        0.2921
     25 H           3.9498   -2.7349   -0.5601 H       1  UNL1        0.0654
     26 H           1.5310   -2.0560   -0.5724 H       1  UNL1        0.0626
     27 H          -2.2881   -2.4172   -0.9229 H       1  UNL1        0.0691
     28 H          -5.0052   -2.8970   -0.4620 H       1  UNL1        0.2921
     29 H          -5.4875    0.3843   -0.4998 H       1  UNL1        0.0691
     30 H          -3.8404    2.8507    1.0043 H       1  UNL1        0.2922
@<TRIPOS>BOND
     1     1     2    2
     2     2     3   ar
     3     3     4   ar
     4     4     5    1
     5     5     6   ar
     6     6     7   ar
     7     7     8   ar
     8     8     9    1
     9     8    10   ar
    10    10    11   ar
    11     4    12   ar
    12    12    13   ar
    13    13    14   ar
    14    14    15   ar
    15    15    16    1
    16    15    17   ar
    17    17    18   ar
    18    18    19    1
    19    18    20   ar
    20    20     2   ar
    21    11     5   ar
    22    20    13   ar
    23     3    21    1
    24     6    22    1
    25     7    23    1
    26     9    24    1
    27    10    25    1
    28    11    26    1
    29    14    27    1
    30    16    28    1
    31    17    29    1
    32    19    30    1
