
     RDKit          3D

 39 41  0  0  0  0  0  0  0  0999 V2000
   -0.3587    0.3697   -0.9642 C   0  0  2  0  0  0  0  0  0  0  0  0
   -1.6298   -0.4359   -1.2711 C   0  0  0  0  0  0  0  0  0  0  0  0
   -2.3101   -0.7370    0.0308 C   0  0  1  0  0  0  0  0  0  0  0  0
   -3.3544   -1.8054   -0.2647 C   0  0  0  0  0  0  0  0  0  0  0  0
   -4.0260   -2.1331    0.9054 O   0  0  0  0  0  0  0  0  0  0  0  0
   -1.3532   -1.2680    1.0458 C   0  0  0  0  0  0  0  0  0  0  0  0
   -0.1575   -0.5835    1.1395 O   0  0  0  0  0  0  0  0  0  0  0  0
    0.4715   -0.5393   -0.1100 C   0  0  2  0  0  0  0  0  0  0  0  0
    1.8924   -0.2023   -0.0385 C   0  0  0  0  0  0  0  0  0  0  0  0
    2.5546   -0.9013    0.9642 C   0  0  0  0  0  0  0  0  0  0  0  0
    3.9195   -0.7185    1.1925 C   0  0  0  0  0  0  0  0  0  0  0  0
    4.6267    0.1633    0.4195 C   0  0  0  0  0  0  0  0  0  0  0  0
    5.9994    0.3856    0.6055 O   0  0  0  0  0  0  0  0  0  0  0  0
    3.9788    0.8637   -0.5801 C   0  0  0  0  0  0  0  0  0  0  0  0
    2.6379    0.6823   -0.8024 C   0  0  0  0  0  0  0  0  0  0  0  0
   -3.0096    0.5102    0.5294 C   0  0  0  0  0  0  0  0  0  0  0  0
   -2.0596    1.6542    0.3250 C   0  0  0  0  0  0  0  0  0  0  0  0
   -0.8349    1.5757   -0.2302 C   0  0  0  0  0  0  0  0  0  0  0  0
    0.0811    2.7435   -0.1049 C   0  0  0  0  0  0  0  0  0  0  0  0
    0.0773    0.6173   -1.9444 H   0  0  0  0  0  0  0  0  0  0  0  0
   -1.2649   -1.3878   -1.7164 H   0  0  0  0  0  0  0  0  0  0  0  0
   -2.2666    0.1641   -1.9435 H   0  0  0  0  0  0  0  0  0  0  0  0
   -2.9302   -2.6717   -0.7715 H   0  0  0  0  0  0  0  0  0  0  0  0
   -4.1115   -1.3720   -0.9541 H   0  0  0  0  0  0  0  0  0  0  0  0
   -4.9392   -2.4500    0.6493 H   0  0  0  0  0  0  0  0  0  0  0  0
   -1.8537   -1.1861    2.0445 H   0  0  0  0  0  0  0  0  0  0  0  0
   -1.1546   -2.3523    0.8529 H   0  0  0  0  0  0  0  0  0  0  0  0
    0.3824   -1.5739   -0.5454 H   0  0  0  0  0  0  0  0  0  0  0  0
    2.1027   -1.6276    1.6425 H   0  0  0  0  0  0  0  0  0  0  0  0
    4.4519   -1.2436    1.9568 H   0  0  0  0  0  0  0  0  0  0  0  0
    6.6487   -0.1579    0.0793 H   0  0  0  0  0  0  0  0  0  0  0  0
    4.5085    1.5686   -1.2094 H   0  0  0  0  0  0  0  0  0  0  0  0
    2.0468    1.1824   -1.5572 H   0  0  0  0  0  0  0  0  0  0  0  0
   -3.9429    0.6735   -0.0410 H   0  0  0  0  0  0  0  0  0  0  0  0
   -3.2595    0.3825    1.5996 H   0  0  0  0  0  0  0  0  0  0  0  0
   -2.4892    2.5859    0.6896 H   0  0  0  0  0  0  0  0  0  0  0  0
    0.4971    3.0225   -1.1096 H   0  0  0  0  0  0  0  0  0  0  0  0
   -0.4848    3.6489    0.2465 H   0  0  0  0  0  0  0  0  0  0  0  0
    0.9138    2.5533    0.6041 H   0  0  0  0  0  0  0  0  0  0  0  0
  1  2  1  0
  2  3  1  0
  3  4  1  6
  4  5  1  0
  3  6  1  0
  6  7  1  0
  7  8  1  0
  8  9  1  0
  9 10  2  0
 10 11  1  0
 11 12  2  0
 12 13  1  0
 12 14  1  0
 14 15  2  0
  3 16  1  0
 16 17  1  0
 17 18  2  0
 18 19  1  0
  8  1  1  0
 15  9  1  0
 18  1  1  0
  1 20  1  6
  2 21  1  0
  2 22  1  0
  4 23  1  0
  4 24  1  0
  5 25  1  0
  6 26  1  0
  6 27  1  0
  8 28  1  6
 10 29  1  0
 11 30  1  0
 13 31  1  0
 14 32  1  0
 15 33  1  0
 16 34  1  0
 16 35  1  0
 17 36  1  0
 19 37  1  0
 19 38  1  0
 19 39  1  0
M  END
$$$$
