@<TRIPOS>MOLECULE
*****
 39 41 0 0 0
SMALL
GASTEIGER

@<TRIPOS>ATOM
      1 C          -0.3587    0.3697   -0.9642 C.3     1  UNL1        0.0109
      2 C          -1.6298   -0.4359   -1.2711 C.3     1  UNL1       -0.0337
      3 C          -2.3101   -0.7370    0.0308 C.3     1  UNL1        0.0213
      4 C          -3.3544   -1.8054   -0.2647 C.3     1  UNL1        0.0522
      5 O          -4.0260   -2.1331    0.9054 O.3     1  UNL1       -0.3944
      6 C          -1.3532   -1.2680    1.0458 C.3     1  UNL1        0.0565
      7 O          -0.1575   -0.5835    1.1395 O.3     1  UNL1       -0.3707
      8 C           0.4715   -0.5393   -0.1100 C.3     1  UNL1        0.0901
      9 C           1.8924   -0.2023   -0.0385 C.ar    1  UNL1       -0.0181
     10 C           2.5546   -0.9013    0.9642 C.ar    1  UNL1       -0.0527
     11 C           3.9195   -0.7185    1.1925 C.ar    1  UNL1       -0.0198
     12 C           4.6267    0.1633    0.4195 C.ar    1  UNL1        0.1169
     13 O           5.9994    0.3856    0.6055 O.3     1  UNL1       -0.5068
     14 C           3.9788    0.8637   -0.5801 C.ar    1  UNL1       -0.0198
     15 C           2.6379    0.6823   -0.8024 C.ar    1  UNL1       -0.0527
     16 C          -3.0096    0.5102    0.5294 C.3     1  UNL1       -0.0246
     17 C          -2.0596    1.6542    0.3250 C.2     1  UNL1       -0.0840
     18 C          -0.8349    1.5757   -0.2302 C.2     1  UNL1       -0.0706
     19 C           0.0811    2.7435   -0.1049 C.3     1  UNL1       -0.0434
     20 H           0.0773    0.6173   -1.9444 H       1  UNL1        0.0374
     21 H          -1.2649   -1.3878   -1.7164 H       1  UNL1        0.0279
     22 H          -2.2666    0.1641   -1.9435 H       1  UNL1        0.0279
     23 H          -2.9302   -2.6717   -0.7715 H       1  UNL1        0.0563
     24 H          -4.1115   -1.3720   -0.9541 H       1  UNL1        0.0563
     25 H          -4.9392   -2.4500    0.6493 H       1  UNL1        0.2094
     26 H          -1.8537   -1.1861    2.0445 H       1  UNL1        0.0566
     27 H          -1.1546   -2.3523    0.8529 H       1  UNL1        0.0566
     28 H           0.3824   -1.5739   -0.5454 H       1  UNL1        0.0652
     29 H           2.1027   -1.6276    1.6425 H       1  UNL1        0.0622
     30 H           4.4519   -1.2436    1.9568 H       1  UNL1        0.0654
     31 H           6.6487   -0.1579    0.0793 H       1  UNL1        0.2921
     32 H           4.5085    1.5686   -1.2094 H       1  UNL1        0.0654
     33 H           2.0468    1.1824   -1.5572 H       1  UNL1        0.0622
     34 H          -3.9429    0.6735   -0.0410 H       1  UNL1        0.0314
     35 H          -3.2595    0.3825    1.5996 H       1  UNL1        0.0314
     36 H          -2.4892    2.5859    0.6896 H       1  UNL1        0.0572
     37 H           0.4971    3.0225   -1.1096 H       1  UNL1        0.0274
     38 H          -0.4848    3.6489    0.2465 H       1  UNL1        0.0274
     39 H           0.9138    2.5533    0.6041 H       1  UNL1        0.0274
@<TRIPOS>BOND
     1     1     2    1
     2     2     3    1
     3     3     4    1
     4     4     5    1
     5     3     6    1
     6     6     7    1
     7     7     8    1
     8     8     9    1
     9     9    10   ar
    10    10    11   ar
    11    11    12   ar
    12    12    13    1
    13    12    14   ar
    14    14    15   ar
    15     3    16    1
    16    16    17    1
    17    17    18    2
    18    18    19    1
    19     8     1    1
    20    15     9   ar
    21    18     1    1
    22     1    20    1
    23     2    21    1
    24     2    22    1
    25     4    23    1
    26     4    24    1
    27     5    25    1
    28     6    26    1
    29     6    27    1
    30     8    28    1
    31    10    29    1
    32    11    30    1
    33    13    31    1
    34    14    32    1
    35    15    33    1
    36    16    34    1
    37    16    35    1
    38    17    36    1
    39    19    37    1
    40    19    38    1
    41    19    39    1
