@<TRIPOS>MOLECULE
*****
 21 22 0 0 0
SMALL
GASTEIGER

@<TRIPOS>ATOM
      1 N          -3.6052   -0.5482   -0.0607 N.pl3   1  UNL1       -0.2493
      2 C          -2.6782    0.4529   -0.4611 C.2     1  UNL1        0.2729
      3 N          -3.1494    1.5570   -0.9341 N.2     1  UNL1       -0.2880
      4 C          -1.2704    0.2680   -0.3537 C.ar    1  UNL1        0.0991
      5 C          -0.4578   -0.4302    0.4797 C.ar    1  UNL1       -0.0321
      6 C           0.9041   -0.4104    0.3244 C.ar    1  UNL1       -0.0100
      7 C           1.3725    0.3814   -0.7530 C.ar    1  UNL1        0.0201
      8 S          -0.1293    1.0660   -1.5032 S.2     1  UNL1       -0.0811
      9 C           2.7062    0.5339   -1.0788 C.ar    1  UNL1       -0.0474
     10 C           3.6598   -0.1104   -0.3290 C.ar    1  UNL1       -0.0607
     11 C           3.1689   -0.8714    0.7102 C.ar    1  UNL1       -0.0611
     12 C           1.8663   -1.0548    1.0734 C.ar    1  UNL1       -0.0535
     13 H          -3.2415   -1.4907    0.1958 H       1  UNL1        0.2883
     14 H          -4.6318   -0.3694   -0.0162 H       1  UNL1        0.2883
     15 H          -4.1787    1.5836   -0.9670 H       1  UNL1        0.3009
     16 H          -2.5160    2.3279   -1.2441 H       1  UNL1        0.3009
     17 H          -0.9848   -0.9805    1.2476 H       1  UNL1        0.0637
     18 H           2.9237    1.1674   -1.9258 H       1  UNL1        0.0629
     19 H           4.7006   -0.0002   -0.5718 H       1  UNL1        0.0618
     20 H           3.9243   -1.3942    1.3203 H       1  UNL1        0.0618
     21 H           1.6165   -1.6775    1.9094 H       1  UNL1        0.0624
@<TRIPOS>UNITY_ATOM_ATTR
3 1
charge 1
@<TRIPOS>BOND
     1     1     2    1
     2     2     3    2
     3     2     4    1
     4     4     5   ar
     5     5     6   ar
     6     6     7   ar
     7     7     8   ar
     8     7     9   ar
     9     9    10   ar
    10    10    11   ar
    11    11    12   ar
    12     8     4   ar
    13    12     6   ar
    14     1    13    1
    15     1    14    1
    16     3    15    1
    17     3    16    1
    18     5    17    1
    19     9    18    1
    20    10    19    1
    21    11    20    1
    22    12    21    1
