
     RDKit          3D

 53 56  0  0  0  0  0  0  0  0999 V2000
   -5.9151   -2.0135    0.2289 C   0  0  0  0  0  0  0  0  0  0  0  0
   -4.6309   -1.3695    0.0436 C   0  0  0  0  0  0  0  0  0  0  0  0
   -3.0409   -2.2116   -0.2002 S   0  0  0  0  0  0  0  0  0  0  0  0
   -2.1077   -0.5979   -0.3329 C   0  0  0  0  0  0  0  0  0  0  0  0
   -0.5978   -0.6841   -0.5617 C   0  0  0  0  0  0  0  0  0  0  0  0
   -0.2829   -0.8373   -2.0083 C   0  0  0  0  0  0  0  0  0  0  0  0
   -0.0361   -1.6566    0.3137 N   0  0  0  0  0  0  0  0  0  0  0  0
    1.3323   -1.9820    0.2365 C   0  0  0  0  0  0  0  0  0  0  0  0
    1.6361   -3.2602   -0.0928 N   0  0  0  0  0  0  0  0  0  0  0  0
    2.9123   -3.7033   -0.2025 C   0  0  0  0  0  0  0  0  0  0  0  0
    3.9099   -2.7729    0.0412 C   0  0  0  0  0  0  0  0  0  0  0  0
    3.6160   -1.4603    0.3789 C   0  0  0  0  0  0  0  0  0  0  0  0
    4.6580   -0.5359    0.6265 N   0  0  0  0  0  0  0  0  0  0  0  0
    5.1889   -0.2865    1.9384 C   0  0  0  0  0  0  0  0  0  0  0  0
    4.6662   -0.6944    3.0194 O   0  0  0  0  0  0  0  0  0  0  0  0
    6.3273    0.4535    1.7546 O   0  0  0  0  0  0  0  0  0  0  0  0
    6.7151    0.4161    0.3966 C   0  0  0  0  0  0  0  0  0  0  0  0
    5.3822    0.2872   -0.3148 C   0  0  2  0  0  0  0  0  0  0  0  0
    4.7251    1.6026   -0.5606 C   0  0  1  0  0  0  0  0  0  0  0  0
    4.5620    2.3629    0.7305 C   0  0  0  0  0  0  0  0  0  0  0  0
    5.4718    2.3440   -1.4777 O   0  0  0  0  0  0  0  0  0  0  0  0
    2.3157   -1.0954    0.4689 N   0  0  0  0  0  0  0  0  0  0  0  0
   -2.9738    0.1700   -0.1987 N   0  0  0  0  0  0  0  0  0  0  0  0
   -4.2577   -0.0142   -0.0063 C   0  0  0  0  0  0  0  0  0  0  0  0
   -5.2987    1.0399    0.1509 C   0  0  0  0  0  0  0  0  0  0  0  0
   -5.3129    2.1286   -0.7051 C   0  0  0  0  0  0  0  0  0  0  0  0
   -6.2320    3.1383   -0.6371 C   0  0  0  0  0  0  0  0  0  0  0  0
   -7.2104    3.0748    0.3437 C   0  0  0  0  0  0  0  0  0  0  0  0
   -8.4070    4.3629    0.4552 Cl  0  0  0  0  0  0  0  0  0  0  0  0
   -7.2174    2.0052    1.2036 C   0  0  0  0  0  0  0  0  0  0  0  0
   -6.2707    0.9983    1.1077 C   0  0  0  0  0  0  0  0  0  0  0  0
   -6.0883   -2.1737    1.3130 H   0  0  0  0  0  0  0  0  0  0  0  0
   -6.7496   -1.5509   -0.3051 H   0  0  0  0  0  0  0  0  0  0  0  0
   -5.8192   -3.0636   -0.1828 H   0  0  0  0  0  0  0  0  0  0  0  0
   -0.1999    0.3205   -0.2314 H   0  0  0  0  0  0  0  0  0  0  0  0
   -0.3884   -1.8396   -2.4203 H   0  0  0  0  0  0  0  0  0  0  0  0
    0.7116   -0.3830   -2.1833 H   0  0  0  0  0  0  0  0  0  0  0  0
   -1.0140   -0.1900   -2.5718 H   0  0  0  0  0  0  0  0  0  0  0  0
   -0.6384   -2.1295    1.0122 H   0  0  0  0  0  0  0  0  0  0  0  0
    3.1289   -4.7288   -0.4652 H   0  0  0  0  0  0  0  0  0  0  0  0
    4.9411   -3.0507   -0.0248 H   0  0  0  0  0  0  0  0  0  0  0  0
    7.3163    1.2730    0.0774 H   0  0  0  0  0  0  0  0  0  0  0  0
    7.3322   -0.5007    0.1926 H   0  0  0  0  0  0  0  0  0  0  0  0
    5.4813   -0.2368   -1.2909 H   0  0  0  0  0  0  0  0  0  0  0  0
    3.7497    1.4132   -1.0501 H   0  0  0  0  0  0  0  0  0  0  0  0
    3.9466    1.7690    1.4049 H   0  0  0  0  0  0  0  0  0  0  0  0
    5.5700    2.5779    1.1402 H   0  0  0  0  0  0  0  0  0  0  0  0
    4.1029    3.3552    0.4796 H   0  0  0  0  0  0  0  0  0  0  0  0
    6.0009    1.6973   -2.0080 H   0  0  0  0  0  0  0  0  0  0  0  0
   -4.5249    2.1510   -1.4742 H   0  0  0  0  0  0  0  0  0  0  0  0
   -6.2187    3.9914   -1.3295 H   0  0  0  0  0  0  0  0  0  0  0  0
   -7.9733    1.9348    1.9743 H   0  0  0  0  0  0  0  0  0  0  0  0
   -6.2939    0.1552    1.8031 H   0  0  0  0  0  0  0  0  0  0  0  0
  1  2  1  0
  2  3  1  0
  3  4  1  0
  4  5  1  0
  5  6  1  0
  5  7  1  0
  7  8  1  0
  8  9  2  0
  9 10  1  0
 10 11  2  0
 11 12  1  0
 12 13  1  0
 13 14  1  0
 14 15  2  0
 14 16  1  0
 16 17  1  0
 17 18  1  0
 18 19  1  0
 19 20  1  0
 19 21  1  0
 12 22  2  0
  4 23  2  0
 23 24  1  0
 24 25  1  0
 25 26  2  0
 26 27  1  0
 27 28  2  0
 28 29  1  0
 28 30  1  0
 30 31  2  0
 24  2  2  0
 31 25  1  0
 22  8  1  0
 18 13  1  0
  1 32  1  0
  1 33  1  0
  1 34  1  0
  5 35  1  0
  6 36  1  0
  6 37  1  0
  6 38  1  0
  7 39  1  0
 10 40  1  0
 11 41  1  0
 17 42  1  0
 17 43  1  0
 18 44  1  6
 19 45  1  6
 20 46  1  0
 20 47  1  0
 20 48  1  0
 21 49  1  0
 26 50  1  0
 27 51  1  0
 30 52  1  0
 31 53  1  0
M  END
$$$$
