@<TRIPOS>MOLECULE
*****
 53 56 0 0 0
SMALL
GASTEIGER

@<TRIPOS>ATOM
      1 C          -5.9151   -2.0135    0.2289 C.3     1  UNL1       -0.0313
      2 C          -4.6309   -1.3695    0.0436 C.ar    1  UNL1        0.0143
      3 S          -3.0409   -2.2116   -0.2002 S.2     1  UNL1       -0.0749
      4 C          -2.1077   -0.5979   -0.3329 C.ar    1  UNL1        0.0991
      5 C          -0.5978   -0.6841   -0.5617 C.3     1  UNL1        0.0691
      6 C          -0.2829   -0.8373   -2.0083 C.3     1  UNL1       -0.0405
      7 N          -0.0361   -1.6566    0.3137 N.pl3   1  UNL1       -0.3049
      8 C           1.3323   -1.9820    0.2365 C.ar    1  UNL1        0.2174
      9 N           1.6361   -3.2602   -0.0928 N.ar    1  UNL1       -0.2228
     10 C           2.9123   -3.7033   -0.2025 C.ar    1  UNL1        0.0344
     11 C           3.9099   -2.7729    0.0412 C.ar    1  UNL1       -0.0029
     12 C           3.6160   -1.4603    0.3789 C.ar    1  UNL1        0.1355
     13 N           4.6580   -0.5359    0.6265 N.am    1  UNL1       -0.2124
     14 C           5.1889   -0.2865    1.9384 C.2     1  UNL1        0.4088
     15 O           4.6662   -0.6944    3.0194 O.2     1  UNL1       -0.2258
     16 O           6.3273    0.4535    1.7546 O.3     1  UNL1       -0.4480
     17 C           6.7151    0.4161    0.3966 C.3     1  UNL1        0.1155
     18 C           5.3822    0.2872   -0.3148 C.3     1  UNL1        0.0953
     19 C           4.7251    1.6026   -0.5606 C.3     1  UNL1        0.0746
     20 C           4.5620    2.3629    0.7305 C.3     1  UNL1       -0.0371
     21 O           5.4718    2.3440   -1.4777 O.3     1  UNL1       -0.3901
     22 N           2.3157   -1.0954    0.4689 N.ar    1  UNL1       -0.1991
     23 N          -2.9738    0.1700   -0.1987 N.ar    1  UNL1       -0.2419
     24 C          -4.2577   -0.0142   -0.0063 C.ar    1  UNL1        0.0814
     25 C          -5.2987    1.0399    0.1509 C.ar    1  UNL1        0.0012
     26 C          -5.3129    2.1286   -0.7051 C.ar    1  UNL1       -0.0512
     27 C          -6.2320    3.1383   -0.6371 C.ar    1  UNL1       -0.0428
     28 C          -7.2104    3.0748    0.3437 C.ar    1  UNL1        0.0410
     29 CL         -8.4070    4.3629    0.4552 Cl      1  UNL1       -0.0835
     30 C          -7.2174    2.0052    1.2036 C.ar    1  UNL1       -0.0428
     31 C          -6.2707    0.9983    1.1077 C.ar    1  UNL1       -0.0512
     32 H          -6.0883   -2.1737    1.3130 H       1  UNL1        0.0283
     33 H          -6.7496   -1.5509   -0.3051 H       1  UNL1        0.0283
     34 H          -5.8192   -3.0636   -0.1828 H       1  UNL1        0.0283
     35 H          -0.1999    0.3205   -0.2314 H       1  UNL1        0.0566
     36 H          -0.3884   -1.8396   -2.4203 H       1  UNL1        0.0251
     37 H           0.7116   -0.3830   -2.1833 H       1  UNL1        0.0251
     38 H          -1.0140   -0.1900   -2.5718 H       1  UNL1        0.0251
     39 H          -0.6384   -2.1295    1.0122 H       1  UNL1        0.1496
     40 H           3.1289   -4.7288   -0.4652 H       1  UNL1        0.0832
     41 H           4.9411   -3.0507   -0.0248 H       1  UNL1        0.0667
     42 H           7.3163    1.2730    0.0774 H       1  UNL1        0.0718
     43 H           7.3322   -0.5007    0.1926 H       1  UNL1        0.0718
     44 H           5.4813   -0.2368   -1.2909 H       1  UNL1        0.0565
     45 H           3.7497    1.4132   -1.0501 H       1  UNL1        0.0610
     46 H           3.9466    1.7690    1.4049 H       1  UNL1        0.0255
     47 H           5.5700    2.5779    1.1402 H       1  UNL1        0.0255
     48 H           4.1029    3.3552    0.4796 H       1  UNL1        0.0255
     49 H           6.0009    1.6973   -2.0080 H       1  UNL1        0.2098
     50 H          -4.5249    2.1510   -1.4742 H       1  UNL1        0.0625
     51 H          -6.2187    3.9914   -1.3295 H       1  UNL1        0.0632
     52 H          -7.9733    1.9348    1.9743 H       1  UNL1        0.0632
     53 H          -6.2939    0.1552    1.8031 H       1  UNL1        0.0625
@<TRIPOS>BOND
     1     1     2    1
     2     2     3   ar
     3     3     4   ar
     4     4     5    1
     5     5     6    1
     6     5     7    1
     7     7     8    1
     8     8     9   ar
     9     9    10   ar
    10    10    11   ar
    11    11    12   ar
    12    12    13    1
    13    13    14   am
    14    14    15    2
    15    14    16    1
    16    16    17    1
    17    17    18    1
    18    18    19    1
    19    19    20    1
    20    19    21    1
    21    12    22   ar
    22     4    23   ar
    23    23    24   ar
    24    24    25    1
    25    25    26   ar
    26    26    27   ar
    27    27    28   ar
    28    28    29    1
    29    28    30   ar
    30    30    31   ar
    31    24     2   ar
    32    31    25   ar
    33    22     8   ar
    34    18    13    1
    35     1    32    1
    36     1    33    1
    37     1    34    1
    38     5    35    1
    39     6    36    1
    40     6    37    1
    41     6    38    1
    42     7    39    1
    43    10    40    1
    44    11    41    1
    45    17    42    1
    46    17    43    1
    47    18    44    1
    48    19    45    1
    49    20    46    1
    50    20    47    1
    51    20    48    1
    52    21    49    1
    53    26    50    1
    54    27    51    1
    55    30    52    1
    56    31    53    1
