@<TRIPOS>MOLECULE
*****
 52 55 0 0 0
SMALL
GASTEIGER

@<TRIPOS>ATOM
      1 C          -3.2297    1.7817   -1.9305 C.3     1  UNL1       -0.0275
      2 C          -3.3026    0.6572   -0.8719 C.3     1  UNL1        0.1021
      3 O          -2.1442    0.1049   -0.7272 O.3     1  UNL1       -0.4879
      4 C          -1.0333   -0.5464   -0.6308 C.ar    1  UNL1        0.1350
      5 C           0.1352    0.0332   -0.0871 C.ar    1  UNL1       -0.0113
      6 C           1.3130   -0.6463    0.0189 C.ar    1  UNL1       -0.0094
      7 C           2.4874    0.0226    0.5958 C.ar    1  UNL1        0.0197
      8 C           2.7414    1.3726    0.4804 C.ar    1  UNL1        0.0571
      9 N           3.8697    1.6584    1.1056 N.ar    1  UNL1       -0.1790
     10 N           4.3408    0.5387    1.6136 N.ar    1  UNL1       -0.2706
     11 C           5.5603    0.4028    2.3776 C.3     1  UNL1        0.0497
     12 C           6.7346    0.1104    1.4948 C.3     1  UNL1        0.0623
     13 C           6.9997    1.1786    0.4719 C.3     1  UNL1        0.3918
     14 F           7.2441    2.3533    1.1512 F       1  UNL1       -0.1707
     15 F           5.9621    1.2598   -0.4219 F       1  UNL1       -0.1707
     16 F           8.1624    0.7757   -0.2025 F       1  UNL1       -0.1707
     17 C           3.5123   -0.4947    1.3186 C.ar    1  UNL1        0.0332
     18 C           1.3392   -1.9449   -0.4277 C.ar    1  UNL1       -0.0258
     19 C           0.2141   -2.5573   -0.9703 C.ar    1  UNL1        0.0998
     20 N          -0.0043   -3.7992   -1.4684 N.ar    1  UNL1       -0.1689
     21 N          -1.2465   -3.9435   -1.8814 N.ar    1  UNL1       -0.2408
     22 C          -1.8655   -5.1265   -2.4759 C.3     1  UNL1        0.0331
     23 C          -1.8589   -2.7492   -1.6423 C.ar    1  UNL1        0.2228
     24 F          -3.1655   -2.4851   -1.9311 F       1  UNL1       -0.1834
     25 C          -0.9580   -1.8759   -1.0739 C.ar    1  UNL1        0.0975
     26 C          -4.0222    1.1714    0.3603 C.3     1  UNL1        0.0195
     27 C          -3.3756    2.3383    1.0181 C.3     1  UNL1        0.0182
     28 N          -4.4850    2.9971    1.7250 N.am    1  UNL1       -0.3149
     29 C          -5.7184    2.4008    1.3476 C.2     1  UNL1        0.2135
     30 O          -6.8197    2.5044    1.9456 O.2     1  UNL1       -0.2758
     31 C          -5.4162    1.6344    0.0990 C.3     1  UNL1        0.0315
     32 H          -2.6981    1.3241   -2.8155 H       1  UNL1        0.0265
     33 H          -4.2405    2.0265   -2.2914 H       1  UNL1        0.0265
     34 H          -2.6146    2.6177   -1.6098 H       1  UNL1        0.0265
     35 H          -4.0675   -0.0482   -1.3402 H       1  UNL1        0.0733
     36 H           0.0869    1.0754    0.2634 H       1  UNL1        0.0660
     37 H           2.0872    2.0719   -0.0544 H       1  UNL1        0.0854
     38 H           5.6746    1.3494    2.9483 H       1  UNL1        0.0511
     39 H           5.4411   -0.4666    3.0601 H       1  UNL1        0.0511
     40 H           6.4931   -0.8617    0.9709 H       1  UNL1        0.0370
     41 H           7.6085   -0.0656    2.1598 H       1  UNL1        0.0370
     42 H           3.6034   -1.5383    1.5817 H       1  UNL1        0.0832
     43 H           2.2435   -2.4933   -0.3556 H       1  UNL1        0.0646
     44 H          -2.9479   -5.0022   -2.5291 H       1  UNL1        0.0474
     45 H          -1.5700   -5.9826   -1.8090 H       1  UNL1        0.0474
     46 H          -1.3802   -5.3359   -3.4504 H       1  UNL1        0.0474
     47 H          -4.0828    0.3138    1.0707 H       1  UNL1        0.0356
     48 H          -2.8496    3.0299    0.3645 H       1  UNL1        0.0466
     49 H          -2.7238    1.9377    1.8433 H       1  UNL1        0.0466
     50 H          -4.3623    3.7852    2.4004 H       1  UNL1        0.1487
     51 H          -6.1417    0.8080   -0.0444 H       1  UNL1        0.0363
     52 H          -5.5300    2.3274   -0.7444 H       1  UNL1        0.0363
@<TRIPOS>BOND
     1     1     2    1
     2     2     3    1
     3     3     4    1
     4     4     5   ar
     5     5     6   ar
     6     6     7    1
     7     7     8   ar
     8     8     9   ar
     9     9    10   ar
    10    10    11    1
    11    11    12    1
    12    12    13    1
    13    13    14    1
    14    13    15    1
    15    13    16    1
    16    10    17   ar
    17     6    18   ar
    18    18    19   ar
    19    19    20   ar
    20    20    21   ar
    21    21    22    1
    22    21    23   ar
    23    23    24    1
    24    23    25   ar
    25     2    26    1
    26    26    27    1
    27    27    28    1
    28    28    29   am
    29    29    30    2
    30    29    31    1
    31    25     4   ar
    32    31    26    1
    33    17     7   ar
    34    25    19   ar
    35     1    32    1
    36     1    33    1
    37     1    34    1
    38     2    35    1
    39     5    36    1
    40     8    37    1
    41    11    38    1
    42    11    39    1
    43    12    40    1
    44    12    41    1
    45    17    42    1
    46    18    43    1
    47    22    44    1
    48    22    45    1
    49    22    46    1
    50    26    47    1
    51    27    48    1
    52    27    49    1
    53    28    50    1
    54    31    51    1
    55    31    52    1
