@<TRIPOS>MOLECULE
*****
 49 51 0 0 0
SMALL
GASTEIGER

@<TRIPOS>ATOM
      1 C          -0.5351    0.0585   -0.4418 C.3     1  UNL1        0.1133
      2 C           0.7587    0.1312    0.3297 C.3     1  UNL1        0.0857
      3 O           1.7597    0.3641   -0.6131 O.3     1  UNL1       -0.3049
      4 P           3.2437    0.4552    0.2035 P.3     1  UNL1        0.3420
      5 O           3.0802    1.7202    1.3323 O.3     1  UNL1       -0.3235
      6 O           3.4603   -0.8813    0.8844 O.2     1  UNL1       -0.2580
      7 C           4.6079    0.7342   -0.9288 C.3     1  UNL1        0.1513
      8 P           6.0507    1.2713    0.0140 P.3     1  UNL1        0.3502
      9 O           7.3834    1.5427   -0.9761 O.3     1  UNL1       -0.3232
     10 O           5.6792    2.5862    0.6950 O.2     1  UNL1       -0.2576
     11 O           6.3940    0.1615    1.2153 O.3     1  UNL1       -0.2078
     12 P           7.0780   -1.2470    0.5876 P.3     1  UNL1        0.4793
     13 O           7.2273   -2.3364    1.8762 O.3     1  UNL1       -0.3024
     14 O           8.6420   -0.9216    0.0347 O.3     1  UNL1       -0.3024
     15 O           6.2152   -1.8650   -0.4820 O.2     1  UNL1       -0.2271
     16 O          -1.6497   -0.1728    0.3641 O.3     1  UNL1       -0.3456
     17 C          -2.6811    0.0601   -0.5448 C.3     1  UNL1        0.1667
     18 N          -3.9976   -0.0685    0.0130 N.ar    1  UNL1       -0.2855
     19 C          -4.5353    0.7788    0.9069 C.ar    1  UNL1        0.1004
     20 N          -5.7666    0.3165    1.1756 N.ar    1  UNL1       -0.2306
     21 C          -5.9987   -0.7934    0.4692 C.ar    1  UNL1        0.1473
     22 C          -7.0926   -1.6543    0.3747 C.ar    1  UNL1        0.1472
     23 N          -8.2303   -1.3364    1.1744 N.pl3   1  UNL1       -0.3413
     24 N          -7.0264   -2.7345   -0.4576 N.ar    1  UNL1       -0.2188
     25 C          -5.8900   -2.9499   -1.1808 C.ar    1  UNL1        0.1205
     26 N          -4.8203   -2.1281   -1.1032 N.ar    1  UNL1       -0.2159
     27 C          -4.8649   -1.0565   -0.2880 C.ar    1  UNL1        0.1674
     28 C          -2.3564    1.4913   -0.9520 C.3     1  UNL1        0.1285
     29 O          -2.9473    1.7880   -2.1780 O.3     1  UNL1       -0.3847
     30 C          -0.8468    1.4152   -1.0392 C.3     1  UNL1        0.1135
     31 O          -0.4601    1.5213   -2.3601 O.3     1  UNL1       -0.3864
     32 H          -0.4809   -0.7552   -1.1706 H       1  UNL1        0.0647
     33 H           0.9780   -0.8920    0.7312 H       1  UNL1        0.0592
     34 H           0.7646    0.9135    1.0894 H       1  UNL1        0.0592
     35 H           2.6250    1.3546    2.1184 H       1  UNL1        0.2198
     36 H           4.7987   -0.2386   -1.4416 H       1  UNL1        0.0513
     37 H           4.3809    1.4635   -1.7317 H       1  UNL1        0.0513
     38 H           7.8253    2.3946   -0.7209 H       1  UNL1        0.2198
     39 H           6.5868   -3.0892    1.7859 H       1  UNL1        0.2220
     40 H           8.6429   -0.6061   -0.8941 H       1  UNL1        0.2220
     41 H          -2.5048   -0.5762   -1.4195 H       1  UNL1        0.0866
     42 H          -4.1358    1.6782    1.3744 H       1  UNL1        0.1030
     43 H          -9.0663   -0.8220    0.7656 H       1  UNL1        0.1438
     44 H          -8.4696   -1.5070    2.1856 H       1  UNL1        0.1438
     45 H          -5.9306   -3.8415   -1.8206 H       1  UNL1        0.1048
     46 H          -2.6351    2.2114   -0.1437 H       1  UNL1        0.0665
     47 H          -3.9278    1.6065   -2.0466 H       1  UNL1        0.2101
     48 H          -0.3513    2.1728   -0.3934 H       1  UNL1        0.0647
     49 H          -0.9811    2.2818   -2.7630 H       1  UNL1        0.2100
@<TRIPOS>BOND
     1     1     2    1
     2     2     3    1
     3     3     4    1
     4     4     5    1
     5     4     6    2
     6     4     7    1
     7     7     8    1
     8     8     9    1
     9     8    10    2
    10     8    11    1
    11    11    12    1
    12    12    13    1
    13    12    14    1
    14    12    15    2
    15     1    16    1
    16    16    17    1
    17    17    18    1
    18    18    19   ar
    19    19    20   ar
    20    20    21   ar
    21    21    22   ar
    22    22    23    1
    23    22    24   ar
    24    24    25   ar
    25    25    26   ar
    26    26    27   ar
    27    17    28    1
    28    28    29    1
    29    28    30    1
    30    30    31    1
    31    30     1    1
    32    27    18   ar
    33    27    21   ar
    34     1    32    1
    35     2    33    1
    36     2    34    1
    37     5    35    1
    38     7    36    1
    39     7    37    1
    40     9    38    1
    41    13    39    1
    42    14    40    1
    43    17    41    1
    44    19    42    1
    45    23    43    1
    46    23    44    1
    47    25    45    1
    48    28    46    1
    49    29    47    1
    50    30    48    1
    51    31    49    1
