
     RDKit          3D

129134  0  0  0  0  0  0  0  0999 V2000
    1.4908   -0.6233   -2.2653 C   0  0  1  0  0  0  0  0  0  0  0  0
    0.5630   -1.3879   -3.2057 C   0  0  0  0  0  0  0  0  0  0  0  0
    1.9951    0.4000   -2.9885 O   0  0  0  0  0  0  0  0  0  0  0  0
    2.7011    1.3405   -2.2126 C   0  0  2  0  0  0  0  0  0  0  0  0
    3.5002    0.6895   -1.2777 O   0  0  0  0  0  0  0  0  0  0  0  0
    4.8545    0.9030   -1.4990 C   0  0  2  0  0  0  0  0  0  0  0  0
    5.5490   -0.3689   -1.9482 C   0  0  1  0  0  0  0  0  0  0  0  0
    6.5885   -0.1153   -3.0148 C   0  0  0  0  0  0  0  0  0  0  0  0
    6.9779   -1.3681   -3.5279 O   0  0  0  0  0  0  0  0  0  0  0  0
    5.9809   -1.1513   -0.9031 O   0  0  0  0  0  0  0  0  0  0  0  0
    6.9622   -0.4610   -0.1271 C   0  0  2  0  0  0  0  0  0  0  0  0
    7.4524   -1.3748    0.7227 O   0  0  0  0  0  0  0  0  0  0  0  0
    8.7310   -1.7569    0.7171 C   0  0  0  0  0  0  0  0  0  0  0  0
    9.8521   -0.8371    1.0205 C   0  0  1  0  0  0  0  0  0  0  0  0
   11.0790   -1.6042    1.0494 O   0  0  0  0  0  0  0  0  0  0  0  0
   11.9081   -0.9550    1.9499 C   0  0  1  0  0  0  0  0  0  0  0  0
   13.0531   -1.6845    2.2237 O   0  0  0  0  0  0  0  0  0  0  0  0
   12.2764    0.3902    1.3716 C   0  0  2  0  0  0  0  0  0  0  0  0
   11.8666    1.4417    2.2057 O   0  0  0  0  0  0  0  0  0  0  0  0
   11.6619    0.5616    0.0240 C   0  0  1  0  0  0  0  0  0  0  0  0
   12.2660   -0.2005   -0.9588 O   0  0  0  0  0  0  0  0  0  0  0  0
   10.1491    0.2605    0.0492 C   0  0  2  0  0  0  0  0  0  0  0  0
    9.5636    1.4535    0.4602 O   0  0  0  0  0  0  0  0  0  0  0  0
    6.2772    0.7140    0.5602 C   0  0  2  0  0  0  0  0  0  0  0  0
    5.2962    0.1762    1.4229 O   0  0  0  0  0  0  0  0  0  0  0  0
    5.5554    1.6170   -0.3811 C   0  0  1  0  0  0  0  0  0  0  0  0
    6.5421    2.4535   -0.9582 O   0  0  0  0  0  0  0  0  0  0  0  0
    1.5973    2.0538   -1.4936 C   0  0  2  0  0  0  0  0  0  0  0  0
    1.9955    3.1860   -0.8075 O   0  0  0  0  0  0  0  0  0  0  0  0
    1.0557    1.0880   -0.4801 C   0  0  1  0  0  0  0  0  0  0  0  0
   -0.0554    1.7366    0.0843 O   0  0  0  0  0  0  0  0  0  0  0  0
    0.6559   -0.2727   -1.0494 C   0  0  2  0  0  0  0  0  0  0  0  0
    0.9294   -1.2342   -0.0815 N   0  0  0  0  0  0  0  0  0  0  0  0
    0.2168   -1.5745    1.0334 C   0  0  1  0  0  0  0  0  0  0  0  0
   -0.0327   -0.4142    1.9232 C   0  0  0  0  0  0  0  0  0  0  0  0
   -1.2125   -0.0495    2.5097 C   0  0  0  0  0  0  0  0  0  0  0  0
   -1.3854    1.1331    3.3916 C   0  0  0  0  0  0  0  0  0  0  0  0
   -2.3320    1.9924    2.8273 O   0  0  0  0  0  0  0  0  0  0  0  0
   -2.4437   -0.8127    2.3332 C   0  0  1  0  0  0  0  0  0  0  0  0
   -3.4634   -0.3433    1.6328 O   0  0  0  0  0  0  0  0  0  0  0  0
   -4.7048   -0.1749    2.1324 C   0  0  1  0  0  0  0  0  0  0  0  0
   -5.3773    0.9802    1.8953 O   0  0  0  0  0  0  0  0  0  0  0  0
   -6.2660    0.9579    0.8420 C   0  0  2  0  0  0  0  0  0  0  0  0
   -6.8193    2.3599    0.6805 C   0  0  0  0  0  0  0  0  0  0  0  0
   -5.7297    3.2059    0.4165 O   0  0  0  0  0  0  0  0  0  0  0  0
   -7.4414    0.0339    1.0309 C   0  0  1  0  0  0  0  0  0  0  0  0
   -7.8670   -0.4166   -0.2122 O   0  0  0  0  0  0  0  0  0  0  0  0
   -9.2213   -0.1518   -0.4402 C   0  0  1  0  0  0  0  0  0  0  0  0
   -9.3145    0.7194   -1.4864 O   0  0  0  0  0  0  0  0  0  0  0  0
  -10.5685    1.0655   -1.9062 C   0  0  2  0  0  0  0  0  0  0  0  0
  -11.0928    2.3205   -1.2321 C   0  0  0  0  0  0  0  0  0  0  0  0
  -10.2593    3.4162   -1.4925 O   0  0  0  0  0  0  0  0  0  0  0  0
  -11.5754   -0.0365   -1.8191 C   0  0  1  0  0  0  0  0  0  0  0  0
  -12.4514    0.0378   -2.8871 O   0  0  0  0  0  0  0  0  0  0  0  0
  -10.9350   -1.4020   -1.7082 C   0  0  2  0  0  0  0  0  0  0  0  0
  -11.8635   -2.4107   -1.5696 O   0  0  0  0  0  0  0  0  0  0  0  0
  -10.0041   -1.4158   -0.5461 C   0  0  1  0  0  0  0  0  0  0  0  0
   -9.0795   -2.4610   -0.7739 O   0  0  0  0  0  0  0  0  0  0  0  0
   -6.9372   -1.1188    1.8769 C   0  0  2  0  0  0  0  0  0  0  0  0
   -6.9750   -0.7080    3.2068 O   0  0  0  0  0  0  0  0  0  0  0  0
   -5.5160   -1.3365    1.4994 C   0  0  1  0  0  0  0  0  0  0  0  0
   -5.2452   -1.5000    0.1728 O   0  0  0  0  0  0  0  0  0  0  0  0
   -2.0322   -2.2493    1.9682 C   0  0  2  0  0  0  0  0  0  0  0  0
   -1.4386   -2.8059    3.1005 O   0  0  0  0  0  0  0  0  0  0  0  0
   -1.1019   -2.2727    0.8084 C   0  0  1  0  0  0  0  0  0  0  0  0
   -1.7266   -1.6500   -0.2668 O   0  0  0  0  0  0  0  0  0  0  0  0
    2.3125   -1.3276   -2.0212 H   0  0  0  0  0  0  0  0  0  0  0  0
    1.1278   -1.7471   -4.1016 H   0  0  0  0  0  0  0  0  0  0  0  0
   -0.1220   -0.5907   -3.6216 H   0  0  0  0  0  0  0  0  0  0  0  0
    0.0120   -2.1755   -2.6964 H   0  0  0  0  0  0  0  0  0  0  0  0
    3.2283    1.9619   -2.9286 H   0  0  0  0  0  0  0  0  0  0  0  0
    4.8924    1.5717   -2.3982 H   0  0  0  0  0  0  0  0  0  0  0  0
    4.7662   -0.9967   -2.4723 H   0  0  0  0  0  0  0  0  0  0  0  0
    6.0804    0.4055   -3.8580 H   0  0  0  0  0  0  0  0  0  0  0  0
    7.4186    0.5218   -2.7198 H   0  0  0  0  0  0  0  0  0  0  0  0
    7.8284   -1.2037   -4.0091 H   0  0  0  0  0  0  0  0  0  0  0  0
    7.7230   -0.0531   -0.7981 H   0  0  0  0  0  0  0  0  0  0  0  0
    8.8103   -2.5825    1.5245 H   0  0  0  0  0  0  0  0  0  0  0  0
    8.9908   -2.3854   -0.2058 H   0  0  0  0  0  0  0  0  0  0  0  0
    9.7422   -0.4568    2.0480 H   0  0  0  0  0  0  0  0  0  0  0  0
   11.3686   -0.7784    2.9210 H   0  0  0  0  0  0  0  0  0  0  0  0
   13.6992   -1.5417    1.4895 H   0  0  0  0  0  0  0  0  0  0  0  0
   13.3663    0.4961    1.2652 H   0  0  0  0  0  0  0  0  0  0  0  0
   12.3779    2.2476    1.9158 H   0  0  0  0  0  0  0  0  0  0  0  0
   11.7555    1.6157   -0.3003 H   0  0  0  0  0  0  0  0  0  0  0  0
   12.6267   -1.0265   -0.5944 H   0  0  0  0  0  0  0  0  0  0  0  0
    9.9240    0.0361   -1.0073 H   0  0  0  0  0  0  0  0  0  0  0  0
   10.0106    2.2367    0.0200 H   0  0  0  0  0  0  0  0  0  0  0  0
    6.9513    1.2787    1.2105 H   0  0  0  0  0  0  0  0  0  0  0  0
    5.0534   -0.7370    1.0860 H   0  0  0  0  0  0  0  0  0  0  0  0
    4.7931    2.2515    0.1146 H   0  0  0  0  0  0  0  0  0  0  0  0
    6.7961    3.1838   -0.3491 H   0  0  0  0  0  0  0  0  0  0  0  0
    0.7664    2.2594   -2.2060 H   0  0  0  0  0  0  0  0  0  0  0  0
    1.4270    3.9303   -1.1324 H   0  0  0  0  0  0  0  0  0  0  0  0
    1.8232    1.0155    0.3123 H   0  0  0  0  0  0  0  0  0  0  0  0
   -0.7117    1.9506   -0.6471 H   0  0  0  0  0  0  0  0  0  0  0  0
   -0.3952   -0.1109   -1.3592 H   0  0  0  0  0  0  0  0  0  0  0  0
    1.5228   -2.0212   -0.4147 H   0  0  0  0  0  0  0  0  0  0  0  0
    0.8441   -2.3527    1.6111 H   0  0  0  0  0  0  0  0  0  0  0  0
    0.7265    0.2978    2.2398 H   0  0  0  0  0  0  0  0  0  0  0  0
   -1.5779    0.8973    4.4366 H   0  0  0  0  0  0  0  0  0  0  0  0
   -0.4339    1.7310    3.3976 H   0  0  0  0  0  0  0  0  0  0  0  0
   -2.5435    2.7626    3.3825 H   0  0  0  0  0  0  0  0  0  0  0  0
   -2.8708   -0.9807    3.3510 H   0  0  0  0  0  0  0  0  0  0  0  0
   -4.8547   -0.4293    3.2031 H   0  0  0  0  0  0  0  0  0  0  0  0
   -5.7441    0.7618   -0.1403 H   0  0  0  0  0  0  0  0  0  0  0  0
   -7.5599    2.4005   -0.1483 H   0  0  0  0  0  0  0  0  0  0  0  0
   -7.2626    2.6898    1.6414 H   0  0  0  0  0  0  0  0  0  0  0  0
   -5.4025    3.0956   -0.4935 H   0  0  0  0  0  0  0  0  0  0  0  0
   -8.2994    0.5117    1.5418 H   0  0  0  0  0  0  0  0  0  0  0  0
   -9.5898    0.3708    0.4887 H   0  0  0  0  0  0  0  0  0  0  0  0
  -10.4758    1.3325   -2.9948 H   0  0  0  0  0  0  0  0  0  0  0  0
  -11.1288    2.2198   -0.1250 H   0  0  0  0  0  0  0  0  0  0  0  0
  -12.0769    2.6026   -1.6599 H   0  0  0  0  0  0  0  0  0  0  0  0
  -10.7180    4.2503   -1.3002 H   0  0  0  0  0  0  0  0  0  0  0  0
  -12.1609    0.1113   -0.8767 H   0  0  0  0  0  0  0  0  0  0  0  0
  -12.5390   -0.8672   -3.2645 H   0  0  0  0  0  0  0  0  0  0  0  0
  -10.3426   -1.5422   -2.6399 H   0  0  0  0  0  0  0  0  0  0  0  0
  -12.6096   -2.1791   -0.9636 H   0  0  0  0  0  0  0  0  0  0  0  0
  -10.4910   -1.6851    0.4129 H   0  0  0  0  0  0  0  0  0  0  0  0
   -9.5925   -3.3006   -0.5628 H   0  0  0  0  0  0  0  0  0  0  0  0
   -7.5889   -2.0130    1.8203 H   0  0  0  0  0  0  0  0  0  0  0  0
   -7.1862    0.2490    3.2905 H   0  0  0  0  0  0  0  0  0  0  0  0
   -5.1950   -2.2915    2.0115 H   0  0  0  0  0  0  0  0  0  0  0  0
   -6.0317   -1.8722   -0.2740 H   0  0  0  0  0  0  0  0  0  0  0  0
   -2.8864   -2.8715    1.7158 H   0  0  0  0  0  0  0  0  0  0  0  0
   -1.6644   -3.7872    3.1774 H   0  0  0  0  0  0  0  0  0  0  0  0
   -0.8894   -3.3487    0.5947 H   0  0  0  0  0  0  0  0  0  0  0  0
   -2.4958   -2.2227   -0.5618 H   0  0  0  0  0  0  0  0  0  0  0  0
  1  2  1  0
  1  3  1  0
  3  4  1  0
  4  5  1  0
  5  6  1  0
  6  7  1  0
  7  8  1  0
  8  9  1  0
  7 10  1  0
 10 11  1  0
 11 12  1  0
 12 13  1  0
 13 14  1  0
 14 15  1  0
 15 16  1  0
 16 17  1  0
 16 18  1  0
 18 19  1  0
 18 20  1  0
 20 21  1  0
 20 22  1  0
 22 23  1  0
 11 24  1  0
 24 25  1  0
 24 26  1  0
 26 27  1  0
  4 28  1  0
 28 29  1  0
 28 30  1  0
 30 31  1  0
 30 32  1  0
 32 33  1  0
 33 34  1  0
 34 35  1  0
 35 36  2  0
 36 37  1  0
 37 38  1  0
 36 39  1  0
 39 40  1  0
 40 41  1  0
 41 42  1  0
 42 43  1  0
 43 44  1  0
 44 45  1  0
 43 46  1  0
 46 47  1  0
 47 48  1  0
 48 49  1  0
 49 50  1  0
 50 51  1  0
 51 52  1  0
 50 53  1  0
 53 54  1  0
 53 55  1  0
 55 56  1  0
 55 57  1  0
 57 58  1  0
 46 59  1  0
 59 60  1  0
 59 61  1  0
 61 62  1  0
 39 63  1  0
 63 64  1  0
 63 65  1  0
 65 66  1  0
 32  1  1  0
 65 34  1  0
 26  6  1  0
 61 41  1  0
 22 14  1  0
 57 48  1  0
  1 67  1  1
  2 68  1  0
  2 69  1  0
  2 70  1  0
  4 71  1  6
  6 72  1  6
  7 73  1  6
  8 74  1  0
  8 75  1  0
  9 76  1  0
 11 77  1  6
 13 78  1  0
 13 79  1  0
 14 80  1  1
 16 81  1  1
 17 82  1  0
 18 83  1  6
 19 84  1  0
 20 85  1  6
 21 86  1  0
 22 87  1  6
 23 88  1  0
 24 89  1  1
 25 90  1  0
 26 91  1  1
 27 92  1  0
 28 93  1  6
 29 94  1  0
 30 95  1  1
 31 96  1  0
 32 97  1  6
 33 98  1  0
 34 99  1  1
 35100  1  0
 37101  1  0
 37102  1  0
 38103  1  0
 39104  1  1
 41105  1  1
 43106  1  6
 44107  1  0
 44108  1  0
 45109  1  0
 46110  1  1
 48111  1  1
 50112  1  6
 51113  1  0
 51114  1  0
 52115  1  0
 53116  1  1
 54117  1  0
 55118  1  6
 56119  1  0
 57120  1  1
 58121  1  0
 59122  1  1
 60123  1  0
 61124  1  1
 62125  1  0
 63126  1  6
 64127  1  0
 65128  1  6
 66129  1  0
M  END
$$$$
