@<TRIPOS>MOLECULE
*****
 78 84 0 0 0
SMALL
GASTEIGER

@<TRIPOS>ATOM
      1 C          -9.2096   -4.1103   -2.6299 C.3     1  UNL1        0.0788
      2 O          -8.4813   -3.0515   -3.2250 O.3     1  UNL1       -0.4951
      3 C          -7.9153   -2.1047   -2.3881 C.ar    1  UNL1        0.1202
      4 C          -8.0340   -2.1563   -1.0157 C.ar    1  UNL1       -0.0179
      5 C          -7.4650   -1.2062   -0.1941 C.ar    1  UNL1       -0.0327
      6 C          -6.7431   -0.1520   -0.7290 C.ar    1  UNL1        0.0677
      7 N          -6.1444    0.8418    0.0914 N.ar    1  UNL1       -0.2181
      8 N          -6.7757    1.7001    0.8776 N.ar    1  UNL1       -0.1694
      9 C          -5.8809    2.4749    1.5058 C.ar    1  UNL1        0.0679
     10 C          -6.2717    3.5485    2.4613 C.3     1  UNL1       -0.0025
     11 C          -6.9866    2.8500    3.6251 C.3     1  UNL1       -0.0572
     12 C          -7.3006    4.4715    1.8398 C.3     1  UNL1       -0.0572
     13 C          -4.6465    2.0627    1.0767 C.ar    1  UNL1        0.0018
     14 C          -4.7987    1.0245    0.1760 C.ar    1  UNL1        0.1299
     15 N          -3.8104    0.2773   -0.5192 N.am    1  UNL1       -0.2538
     16 C          -2.4213    0.4022   -0.3192 C.2     1  UNL1        0.3092
     17 O          -2.0208    1.2124    0.5624 O.2     1  UNL1       -0.2521
     18 N          -1.4325   -0.3226   -1.0421 N.am    1  UNL1       -0.2686
     19 C          -0.0653   -0.1251   -0.7270 C.ar    1  UNL1        0.0427
     20 C           0.7119    0.8681   -1.2706 C.ar    1  UNL1       -0.0363
     21 C           2.0274    0.9595   -0.8840 C.ar    1  UNL1       -0.0169
     22 C           2.6251    0.1004    0.0320 C.ar    1  UNL1        0.1381
     23 O           3.9292    0.2081    0.4054 O.3     1  UNL1       -0.4373
     24 C           4.9427   -0.7082    0.1702 C.ar    1  UNL1        0.2252
     25 C           6.2018   -0.4846    0.6660 C.ar    1  UNL1        0.0405
     26 C           7.1914   -1.3948    0.4266 C.ar    1  UNL1        0.1297
     27 N           8.4676   -1.1496    0.9620 N.pl3   1  UNL1       -0.2992
     28 C           9.4245   -0.2710    0.4086 C.ar    1  UNL1        0.0331
     29 C          10.6568   -0.1156    1.0264 C.ar    1  UNL1       -0.0385
     30 C          11.6018    0.7485    0.5148 C.ar    1  UNL1       -0.0345
     31 C          11.3379    1.4765   -0.6246 C.ar    1  UNL1        0.0658
     32 N          12.0665    2.3604   -1.3031 N.ar    1  UNL1       -0.2770
     33 N          11.3541    2.7791   -2.3331 N.ar    1  UNL1       -0.1812
     34 C          10.1521    2.1659   -2.3285 C.ar    1  UNL1        0.0569
     35 C          10.1057    1.3199   -1.2425 C.ar    1  UNL1        0.0212
     36 C           9.1670    0.4589   -0.7315 C.ar    1  UNL1       -0.0298
     37 N           6.9583   -2.5276   -0.2976 N.ar    1  UNL1       -0.2204
     38 C           5.7241   -2.7412   -0.7797 C.ar    1  UNL1        0.1219
     39 N           4.7512   -1.8564   -0.5499 N.ar    1  UNL1       -0.2010
     40 C           1.8437   -0.9026    0.5827 C.ar    1  UNL1        0.0262
     41 C           2.3799   -1.7741    1.5007 C.ar    1  UNL1       -0.0505
     42 C           1.5703   -2.7514    2.0296 C.ar    1  UNL1       -0.0611
     43 C           0.2484   -2.8719    1.6624 C.ar    1  UNL1       -0.0611
     44 C          -0.2815   -1.9937    0.7430 C.ar    1  UNL1       -0.0521
     45 C           0.5029   -1.0021    0.1933 C.ar    1  UNL1        0.0069
     46 C          -6.6075   -0.0747   -2.0989 C.ar    1  UNL1       -0.0327
     47 C          -7.1894   -1.0410   -2.8939 C.ar    1  UNL1       -0.0179
     48 H          -8.4915   -4.6409   -1.9523 H       1  UNL1        0.0660
     49 H          -9.5625   -4.8442   -3.3913 H       1  UNL1        0.0660
     50 H         -10.0069   -3.7279   -1.9879 H       1  UNL1        0.0660
     51 H          -8.5977   -2.9754   -0.5574 H       1  UNL1        0.0655
     52 H          -7.5535   -1.2369    0.8833 H       1  UNL1        0.0640
     53 H          -5.4010    4.1235    2.8298 H       1  UNL1        0.0359
     54 H          -6.5717    1.8481    3.8118 H       1  UNL1        0.0236
     55 H          -8.0694    2.7298    3.4181 H       1  UNL1        0.0236
     56 H          -6.9160    3.4873    4.5390 H       1  UNL1        0.0236
     57 H          -7.0762    5.5285    1.9883 H       1  UNL1        0.0236
     58 H          -7.2825    4.2808    0.7252 H       1  UNL1        0.0236
     59 H          -8.3402    4.2019    2.1456 H       1  UNL1        0.0236
     60 H          -3.7378    2.4953    1.4048 H       1  UNL1        0.0671
     61 H          -4.1404   -0.4057   -1.2543 H       1  UNL1        0.1578
     62 H          -1.7240   -0.9812   -1.7872 H       1  UNL1        0.1564
     63 H           0.2707    1.5618   -1.9942 H       1  UNL1        0.0637
     64 H           2.6576    1.7389   -1.3024 H       1  UNL1        0.0655
     65 H           6.4005    0.3947    1.2324 H       1  UNL1        0.0706
     66 H           8.6990   -1.6802    1.8499 H       1  UNL1        0.1536
     67 H          10.8288   -0.7041    1.9198 H       1  UNL1        0.0637
     68 H          12.5386    0.8214    1.0460 H       1  UNL1        0.0639
     69 H          13.0381    2.6860   -1.0801 H       1  UNL1        0.1889
     70 H           9.3425    2.2827   -3.0255 H       1  UNL1        0.0854
     71 H           8.2210    0.3650   -1.2408 H       1  UNL1        0.0643
     72 H           5.5565   -3.6387   -1.3476 H       1  UNL1        0.1049
     73 H           3.3900   -1.6857    1.8022 H       1  UNL1        0.0625
     74 H           1.9313   -3.4773    2.7616 H       1  UNL1        0.0618
     75 H          -0.4045   -3.6535    2.0819 H       1  UNL1        0.0618
     76 H          -1.3359   -2.0870    0.4483 H       1  UNL1        0.0624
     77 H          -6.0340    0.7631   -2.5085 H       1  UNL1        0.0640
     78 H          -7.0888   -0.9922   -3.9894 H       1  UNL1        0.0655
@<TRIPOS>BOND
     1     1     2    1
     2     2     3    1
     3     3     4   ar
     4     4     5   ar
     5     5     6   ar
     6     6     7    1
     7     7     8   ar
     8     8     9   ar
     9     9    10    1
    10    10    11    1
    11    10    12    1
    12     9    13   ar
    13    13    14   ar
    14    14    15    1
    15    15    16   am
    16    16    17    2
    17    16    18   am
    18    18    19    1
    19    19    20   ar
    20    20    21   ar
    21    21    22   ar
    22    22    23    1
    23    23    24    1
    24    24    25   ar
    25    25    26   ar
    26    26    27    1
    27    27    28    1
    28    28    29   ar
    29    29    30   ar
    30    30    31   ar
    31    31    32   ar
    32    32    33   ar
    33    33    34   ar
    34    34    35   ar
    35    35    36   ar
    36    26    37   ar
    37    37    38   ar
    38    38    39   ar
    39    22    40   ar
    40    40    41   ar
    41    41    42   ar
    42    42    43   ar
    43    43    44   ar
    44    44    45   ar
    45     6    46   ar
    46    46    47   ar
    47    47     3   ar
    48    14     7   ar
    49    45    19   ar
    50    39    24   ar
    51    45    40   ar
    52    36    28   ar
    53    35    31   ar
    54     1    48    1
    55     1    49    1
    56     1    50    1
    57     4    51    1
    58     5    52    1
    59    10    53    1
    60    11    54    1
    61    11    55    1
    62    11    56    1
    63    12    57    1
    64    12    58    1
    65    12    59    1
    66    13    60    1
    67    15    61    1
    68    18    62    1
    69    20    63    1
    70    21    64    1
    71    25    65    1
    72    27    66    1
    73    29    67    1
    74    30    68    1
    75    32    69    1
    76    34    70    1
    77    36    71    1
    78    38    72    1
    79    41    73    1
    80    42    74    1
    81    43    75    1
    82    44    76    1
    83    46    77    1
    84    47    78    1
