
     RDKit          3D

 78 84  0  0  0  0  0  0  0  0999 V2000
   -9.2096   -4.1103   -2.6299 C   0  0  0  0  0  0  0  0  0  0  0  0
   -8.4813   -3.0515   -3.2250 O   0  0  0  0  0  0  0  0  0  0  0  0
   -7.9153   -2.1047   -2.3881 C   0  0  0  0  0  0  0  0  0  0  0  0
   -8.0340   -2.1563   -1.0157 C   0  0  0  0  0  0  0  0  0  0  0  0
   -7.4650   -1.2062   -0.1941 C   0  0  0  0  0  0  0  0  0  0  0  0
   -6.7431   -0.1520   -0.7290 C   0  0  0  0  0  0  0  0  0  0  0  0
   -6.1444    0.8418    0.0914 N   0  0  0  0  0  0  0  0  0  0  0  0
   -6.7757    1.7001    0.8776 N   0  0  0  0  0  0  0  0  0  0  0  0
   -5.8809    2.4749    1.5058 C   0  0  0  0  0  0  0  0  0  0  0  0
   -6.2717    3.5485    2.4613 C   0  0  0  0  0  0  0  0  0  0  0  0
   -6.9866    2.8500    3.6251 C   0  0  0  0  0  0  0  0  0  0  0  0
   -7.3006    4.4715    1.8398 C   0  0  0  0  0  0  0  0  0  0  0  0
   -4.6465    2.0627    1.0767 C   0  0  0  0  0  0  0  0  0  0  0  0
   -4.7987    1.0245    0.1760 C   0  0  0  0  0  0  0  0  0  0  0  0
   -3.8104    0.2773   -0.5192 N   0  0  0  0  0  0  0  0  0  0  0  0
   -2.4213    0.4022   -0.3192 C   0  0  0  0  0  0  0  0  0  0  0  0
   -2.0208    1.2124    0.5624 O   0  0  0  0  0  0  0  0  0  0  0  0
   -1.4325   -0.3226   -1.0421 N   0  0  0  0  0  0  0  0  0  0  0  0
   -0.0653   -0.1251   -0.7270 C   0  0  0  0  0  0  0  0  0  0  0  0
    0.7119    0.8681   -1.2706 C   0  0  0  0  0  0  0  0  0  0  0  0
    2.0274    0.9595   -0.8840 C   0  0  0  0  0  0  0  0  0  0  0  0
    2.6251    0.1004    0.0320 C   0  0  0  0  0  0  0  0  0  0  0  0
    3.9292    0.2081    0.4054 O   0  0  0  0  0  0  0  0  0  0  0  0
    4.9427   -0.7082    0.1702 C   0  0  0  0  0  0  0  0  0  0  0  0
    6.2018   -0.4846    0.6660 C   0  0  0  0  0  0  0  0  0  0  0  0
    7.1914   -1.3948    0.4266 C   0  0  0  0  0  0  0  0  0  0  0  0
    8.4676   -1.1496    0.9620 N   0  0  0  0  0  0  0  0  0  0  0  0
    9.4245   -0.2710    0.4086 C   0  0  0  0  0  0  0  0  0  0  0  0
   10.6568   -0.1156    1.0264 C   0  0  0  0  0  0  0  0  0  0  0  0
   11.6018    0.7485    0.5148 C   0  0  0  0  0  0  0  0  0  0  0  0
   11.3379    1.4765   -0.6246 C   0  0  0  0  0  0  0  0  0  0  0  0
   12.0665    2.3604   -1.3031 N   0  0  0  0  0  0  0  0  0  0  0  0
   11.3541    2.7791   -2.3331 N   0  0  0  0  0  0  0  0  0  0  0  0
   10.1521    2.1659   -2.3285 C   0  0  0  0  0  0  0  0  0  0  0  0
   10.1057    1.3199   -1.2425 C   0  0  0  0  0  0  0  0  0  0  0  0
    9.1670    0.4589   -0.7315 C   0  0  0  0  0  0  0  0  0  0  0  0
    6.9583   -2.5276   -0.2976 N   0  0  0  0  0  0  0  0  0  0  0  0
    5.7241   -2.7412   -0.7797 C   0  0  0  0  0  0  0  0  0  0  0  0
    4.7512   -1.8564   -0.5499 N   0  0  0  0  0  0  0  0  0  0  0  0
    1.8437   -0.9026    0.5827 C   0  0  0  0  0  0  0  0  0  0  0  0
    2.3799   -1.7741    1.5007 C   0  0  0  0  0  0  0  0  0  0  0  0
    1.5703   -2.7514    2.0296 C   0  0  0  0  0  0  0  0  0  0  0  0
    0.2484   -2.8719    1.6624 C   0  0  0  0  0  0  0  0  0  0  0  0
   -0.2815   -1.9937    0.7430 C   0  0  0  0  0  0  0  0  0  0  0  0
    0.5029   -1.0021    0.1933 C   0  0  0  0  0  0  0  0  0  0  0  0
   -6.6075   -0.0747   -2.0989 C   0  0  0  0  0  0  0  0  0  0  0  0
   -7.1894   -1.0410   -2.8939 C   0  0  0  0  0  0  0  0  0  0  0  0
   -8.4915   -4.6409   -1.9523 H   0  0  0  0  0  0  0  0  0  0  0  0
   -9.5625   -4.8442   -3.3913 H   0  0  0  0  0  0  0  0  0  0  0  0
  -10.0069   -3.7279   -1.9879 H   0  0  0  0  0  0  0  0  0  0  0  0
   -8.5977   -2.9754   -0.5574 H   0  0  0  0  0  0  0  0  0  0  0  0
   -7.5535   -1.2369    0.8833 H   0  0  0  0  0  0  0  0  0  0  0  0
   -5.4010    4.1235    2.8298 H   0  0  0  0  0  0  0  0  0  0  0  0
   -6.5717    1.8481    3.8118 H   0  0  0  0  0  0  0  0  0  0  0  0
   -8.0694    2.7298    3.4181 H   0  0  0  0  0  0  0  0  0  0  0  0
   -6.9160    3.4873    4.5390 H   0  0  0  0  0  0  0  0  0  0  0  0
   -7.0762    5.5285    1.9883 H   0  0  0  0  0  0  0  0  0  0  0  0
   -7.2825    4.2808    0.7252 H   0  0  0  0  0  0  0  0  0  0  0  0
   -8.3402    4.2019    2.1456 H   0  0  0  0  0  0  0  0  0  0  0  0
   -3.7378    2.4953    1.4048 H   0  0  0  0  0  0  0  0  0  0  0  0
   -4.1404   -0.4057   -1.2543 H   0  0  0  0  0  0  0  0  0  0  0  0
   -1.7240   -0.9812   -1.7872 H   0  0  0  0  0  0  0  0  0  0  0  0
    0.2707    1.5618   -1.9942 H   0  0  0  0  0  0  0  0  0  0  0  0
    2.6576    1.7389   -1.3024 H   0  0  0  0  0  0  0  0  0  0  0  0
    6.4005    0.3947    1.2324 H   0  0  0  0  0  0  0  0  0  0  0  0
    8.6990   -1.6802    1.8499 H   0  0  0  0  0  0  0  0  0  0  0  0
   10.8288   -0.7041    1.9198 H   0  0  0  0  0  0  0  0  0  0  0  0
   12.5386    0.8214    1.0460 H   0  0  0  0  0  0  0  0  0  0  0  0
   13.0381    2.6860   -1.0801 H   0  0  0  0  0  0  0  0  0  0  0  0
    9.3425    2.2827   -3.0255 H   0  0  0  0  0  0  0  0  0  0  0  0
    8.2210    0.3650   -1.2408 H   0  0  0  0  0  0  0  0  0  0  0  0
    5.5565   -3.6387   -1.3476 H   0  0  0  0  0  0  0  0  0  0  0  0
    3.3900   -1.6857    1.8022 H   0  0  0  0  0  0  0  0  0  0  0  0
    1.9313   -3.4773    2.7616 H   0  0  0  0  0  0  0  0  0  0  0  0
   -0.4045   -3.6535    2.0819 H   0  0  0  0  0  0  0  0  0  0  0  0
   -1.3359   -2.0870    0.4483 H   0  0  0  0  0  0  0  0  0  0  0  0
   -6.0340    0.7631   -2.5085 H   0  0  0  0  0  0  0  0  0  0  0  0
   -7.0888   -0.9922   -3.9894 H   0  0  0  0  0  0  0  0  0  0  0  0
  1  2  1  0
  2  3  1  0
  3  4  2  0
  4  5  1  0
  5  6  2  0
  6  7  1  0
  7  8  1  0
  8  9  2  0
  9 10  1  0
 10 11  1  0
 10 12  1  0
  9 13  1  0
 13 14  2  0
 14 15  1  0
 15 16  1  0
 16 17  2  0
 16 18  1  0
 18 19  1  0
 19 20  2  0
 20 21  1  0
 21 22  2  0
 22 23  1  0
 23 24  1  0
 24 25  2  0
 25 26  1  0
 26 27  1  0
 27 28  1  0
 28 29  2  0
 29 30  1  0
 30 31  2  0
 31 32  1  0
 32 33  1  0
 33 34  2  0
 34 35  1  0
 35 36  2  0
 26 37  2  0
 37 38  1  0
 38 39  2  0
 22 40  1  0
 40 41  2  0
 41 42  1  0
 42 43  2  0
 43 44  1  0
 44 45  2  0
  6 46  1  0
 46 47  2  0
 47  3  1  0
 14  7  1  0
 45 19  1  0
 39 24  1  0
 45 40  1  0
 36 28  1  0
 35 31  1  0
  1 48  1  0
  1 49  1  0
  1 50  1  0
  4 51  1  0
  5 52  1  0
 10 53  1  0
 11 54  1  0
 11 55  1  0
 11 56  1  0
 12 57  1  0
 12 58  1  0
 12 59  1  0
 13 60  1  0
 15 61  1  0
 18 62  1  0
 20 63  1  0
 21 64  1  0
 25 65  1  0
 27 66  1  0
 29 67  1  0
 30 68  1  0
 32 69  1  0
 34 70  1  0
 36 71  1  0
 38 72  1  0
 41 73  1  0
 42 74  1  0
 43 75  1  0
 44 76  1  0
 46 77  1  0
 47 78  1  0
M  END
$$$$
