
     RDKit          3D

 30 30  0  0  0  0  0  0  0  0999 V2000
    4.3333   -0.0396    0.4170 C   0  0  0  0  0  0  0  0  0  0  0  0
    2.8465   -0.2406    0.5550 C   0  0  0  0  0  0  0  0  0  0  0  0
    2.0940    0.2214   -0.6617 C   0  0  0  0  0  0  0  0  0  0  0  0
    0.6448   -0.0139   -0.4437 C   0  0  0  0  0  0  0  0  0  0  0  0
   -0.1606    1.0625   -0.1396 C   0  0  0  0  0  0  0  0  0  0  0  0
   -1.5060    0.8582    0.0652 C   0  0  0  0  0  0  0  0  0  0  0  0
   -2.3582    1.9072    0.3737 O   0  0  0  0  0  0  0  0  0  0  0  0
   -1.8246    3.2029    0.4759 C   0  0  0  0  0  0  0  0  0  0  0  0
   -2.0908   -0.3976   -0.0227 C   0  0  0  0  0  0  0  0  0  0  0  0
   -3.4539   -0.5535    0.1926 O   0  0  0  0  0  0  0  0  0  0  0  0
   -4.0226   -1.8455    0.0983 C   0  0  0  0  0  0  0  0  0  0  0  0
   -1.2422   -1.4442   -0.3298 C   0  0  0  0  0  0  0  0  0  0  0  0
    0.1167   -1.2797   -0.5429 C   0  0  0  0  0  0  0  0  0  0  0  0
    0.9647   -2.3253   -0.8499 O   0  0  0  0  0  0  0  0  0  0  0  0
    4.8307   -0.8636   -0.1246 H   0  0  0  0  0  0  0  0  0  0  0  0
    4.7650    0.0303    1.4432 H   0  0  0  0  0  0  0  0  0  0  0  0
    4.5177    0.9572   -0.0493 H   0  0  0  0  0  0  0  0  0  0  0  0
    2.6333   -1.2915    0.8336 H   0  0  0  0  0  0  0  0  0  0  0  0
    2.5168    0.3944    1.4246 H   0  0  0  0  0  0  0  0  0  0  0  0
    2.4644   -0.3419   -1.5414 H   0  0  0  0  0  0  0  0  0  0  0  0
    2.3372    1.2741   -0.8353 H   0  0  0  0  0  0  0  0  0  0  0  0
    0.2294    2.0669   -0.0571 H   0  0  0  0  0  0  0  0  0  0  0  0
   -2.6417    3.8620    0.8387 H   0  0  0  0  0  0  0  0  0  0  0  0
   -1.5023    3.6221   -0.5048 H   0  0  0  0  0  0  0  0  0  0  0  0
   -0.9348    3.2538    1.1392 H   0  0  0  0  0  0  0  0  0  0  0  0
   -3.7729   -2.4806    0.9835 H   0  0  0  0  0  0  0  0  0  0  0  0
   -5.1425   -1.7959    0.0918 H   0  0  0  0  0  0  0  0  0  0  0  0
   -3.6578   -2.4096   -0.7983 H   0  0  0  0  0  0  0  0  0  0  0  0
   -1.6592   -2.4510   -0.4094 H   0  0  0  0  0  0  0  0  0  0  0  0
    0.6754   -2.9392   -1.6219 H   0  0  0  0  0  0  0  0  0  0  0  0
  1  2  1  0
  2  3  1  0
  3  4  1  0
  4  5  2  0
  5  6  1  0
  6  7  1  0
  7  8  1  0
  6  9  2  0
  9 10  1  0
 10 11  1  0
  9 12  1  0
 12 13  2  0
 13 14  1  0
 13  4  1  0
  1 15  1  0
  1 16  1  0
  1 17  1  0
  2 18  1  0
  2 19  1  0
  3 20  1  0
  3 21  1  0
  5 22  1  0
  8 23  1  0
  8 24  1  0
  8 25  1  0
 11 26  1  0
 11 27  1  0
 11 28  1  0
 12 29  1  0
 14 30  1  0
M  END
$$$$
