@<TRIPOS>MOLECULE
*****
 30 30 0 0 0
SMALL
GASTEIGER

@<TRIPOS>ATOM
      1 C           4.3333   -0.0396    0.4170 C.3     1  UNL1       -0.0650
      2 C           2.8465   -0.2406    0.5550 C.3     1  UNL1       -0.0518
      3 C           2.0940    0.2214   -0.6617 C.3     1  UNL1       -0.0244
      4 C           0.6448   -0.0139   -0.4437 C.ar    1  UNL1       -0.0023
      5 C          -0.1606    1.0625   -0.1396 C.ar    1  UNL1       -0.0097
      6 C          -1.5060    0.8582    0.0652 C.ar    1  UNL1        0.1620
      7 O          -2.3582    1.9072    0.3737 O.3     1  UNL1       -0.4914
      8 C          -1.8246    3.2029    0.4759 C.3     1  UNL1        0.0790
      9 C          -2.0908   -0.3976   -0.0227 C.ar    1  UNL1        0.1650
     10 O          -3.4539   -0.5535    0.1926 O.3     1  UNL1       -0.4913
     11 C          -4.0226   -1.8455    0.0983 C.3     1  UNL1        0.0790
     12 C          -1.2422   -1.4442   -0.3298 C.ar    1  UNL1        0.0254
     13 C           0.1167   -1.2797   -0.5429 C.ar    1  UNL1        0.1237
     14 O           0.9647   -2.3253   -0.8499 O.3     1  UNL1       -0.5064
     15 H           4.8307   -0.8636   -0.1246 H       1  UNL1        0.0230
     16 H           4.7650    0.0303    1.4432 H       1  UNL1        0.0230
     17 H           4.5177    0.9572   -0.0493 H       1  UNL1        0.0230
     18 H           2.6333   -1.2915    0.8336 H       1  UNL1        0.0266
     19 H           2.5168    0.3944    1.4246 H       1  UNL1        0.0266
     20 H           2.4644   -0.3419   -1.5414 H       1  UNL1        0.0314
     21 H           2.3372    1.2741   -0.8353 H       1  UNL1        0.0314
     22 H           0.2294    2.0669   -0.0571 H       1  UNL1        0.0659
     23 H          -2.6417    3.8620    0.8387 H       1  UNL1        0.0660
     24 H          -1.5023    3.6221   -0.5048 H       1  UNL1        0.0660
     25 H          -0.9348    3.2538    1.1392 H       1  UNL1        0.0660
     26 H          -3.7729   -2.4806    0.9835 H       1  UNL1        0.0660
     27 H          -5.1425   -1.7959    0.0918 H       1  UNL1        0.0660
     28 H          -3.6578   -2.4096   -0.7983 H       1  UNL1        0.0660
     29 H          -1.6592   -2.4510   -0.4094 H       1  UNL1        0.0692
     30 H           0.6754   -2.9392   -1.6219 H       1  UNL1        0.2921
@<TRIPOS>BOND
     1     1     2    1
     2     2     3    1
     3     3     4    1
     4     4     5   ar
     5     5     6   ar
     6     6     7    1
     7     7     8    1
     8     6     9   ar
     9     9    10    1
    10    10    11    1
    11     9    12   ar
    12    12    13   ar
    13    13    14    1
    14    13     4   ar
    15     1    15    1
    16     1    16    1
    17     1    17    1
    18     2    18    1
    19     2    19    1
    20     3    20    1
    21     3    21    1
    22     5    22    1
    23     8    23    1
    24     8    24    1
    25     8    25    1
    26    11    26    1
    27    11    27    1
    28    11    28    1
    29    12    29    1
    30    14    30    1
