@<TRIPOS>MOLECULE
*****
 44 46 0 0 0
SMALL
GASTEIGER

@<TRIPOS>ATOM
      1 N          -2.7348   -3.3063   -1.4721 N.pl3   1  UNL1       -0.3134
      2 C          -3.0446   -2.0029   -1.0017 C.2     1  UNL1        0.2766
      3 N          -2.2066   -1.0312   -1.0349 N.2     1  UNL1       -0.2228
      4 C          -2.5088    0.2944   -0.5625 C.3     1  UNL1        0.1259
      5 C          -3.0865    1.0892   -1.7191 C.3     1  UNL1        0.1196
      6 F          -4.2395    0.5212   -2.2231 F       1  UNL1       -0.2462
      7 C          -1.2477    1.0015   -0.1650 C.ar    1  UNL1        0.0224
      8 C          -0.0349    0.3826   -0.2874 C.ar    1  UNL1       -0.0320
      9 C           1.1683    1.0194    0.0719 C.ar    1  UNL1        0.0369
     10 N           2.3889    0.3240   -0.0792 N.am    1  UNL1       -0.2802
     11 C           3.6826    0.7609    0.2119 C.2     1  UNL1        0.2666
     12 O           3.8457    1.9084    0.6684 O.2     1  UNL1       -0.2682
     13 C           4.8709   -0.0956   -0.0042 C.ar    1  UNL1        0.1257
     14 C           6.1001    0.4300    0.3148 C.ar    1  UNL1       -0.0301
     15 C           7.2529   -0.3080    0.1409 C.ar    1  UNL1       -0.0441
     16 C           7.1254   -1.5855   -0.3623 C.ar    1  UNL1        0.0360
     17 BR          8.7176   -2.6135   -0.6058 Br      1  UNL1       -0.0487
     18 C           5.8798   -2.0809   -0.6713 C.ar    1  UNL1        0.0424
     19 N           4.7837   -1.3250   -0.4851 N.ar    1  UNL1       -0.2493
     20 C           1.0470    2.2855    0.5470 C.ar    1  UNL1       -0.0023
     21 C          -0.1688    2.9148    0.6731 C.ar    1  UNL1        0.1605
     22 F          -0.2416    4.2019    1.1609 F       1  UNL1       -0.2024
     23 C          -1.3452    2.2774    0.3163 C.ar    1  UNL1        0.1640
     24 F          -2.4999    2.9665    0.4764 F       1  UNL1       -0.2021
     25 C          -3.3738    0.2361    0.6404 C.3     1  UNL1        0.0251
     26 C          -4.3723   -0.8672    0.6947 C.3     1  UNL1        0.1998
     27 C          -5.7799   -0.3669    0.9409 C.3     1  UNL1        0.4266
     28 F          -5.7379    0.2971    2.1732 F       1  UNL1       -0.1669
     29 F          -6.6452   -1.4295    1.1048 F       1  UNL1       -0.1669
     30 F          -6.2560    0.4544   -0.0325 F       1  UNL1       -0.1669
     31 O          -4.3039   -1.6847   -0.4613 O.2     1  UNL1       -0.4534
     32 H          -2.2172   -3.9641   -0.8690 H       1  UNL1        0.1466
     33 H          -3.0329   -3.5847   -2.4201 H       1  UNL1        0.1466
     34 H          -2.3289    1.0022   -2.5530 H       1  UNL1        0.0643
     35 H          -3.1938    2.1573   -1.5293 H       1  UNL1        0.0643
     36 H           0.0276   -0.6472   -0.6772 H       1  UNL1        0.0640
     37 H           2.3315   -0.6715   -0.4672 H       1  UNL1        0.1552
     38 H           6.1982    1.4369    0.7111 H       1  UNL1        0.0641
     39 H           8.2412    0.1057    0.3940 H       1  UNL1        0.0630
     40 H           5.8093   -3.1036   -1.0711 H       1  UNL1        0.0841
     41 H           1.9114    2.8447    0.8441 H       1  UNL1        0.0666
     42 H          -2.6952    0.1307    1.5299 H       1  UNL1        0.0331
     43 H          -3.9273    1.1821    0.8407 H       1  UNL1        0.0331
     44 H          -4.1589   -1.5566    1.5697 H       1  UNL1        0.0826
@<TRIPOS>BOND
     1     1     2    1
     2     2     3    2
     3     3     4    1
     4     4     5    1
     5     5     6    1
     6     4     7    1
     7     7     8   ar
     8     8     9   ar
     9     9    10    1
    10    10    11   am
    11    11    12    2
    12    11    13    1
    13    13    14   ar
    14    14    15   ar
    15    15    16   ar
    16    16    17    1
    17    16    18   ar
    18    18    19   ar
    19     9    20   ar
    20    20    21   ar
    21    21    22    1
    22    21    23   ar
    23    23    24    1
    24     4    25    1
    25    25    26    1
    26    26    27    1
    27    27    28    1
    28    27    29    1
    29    27    30    1
    30    26    31    1
    31    31     2    1
    32    23     7   ar
    33    19    13   ar
    34     1    32    1
    35     1    33    1
    36     5    34    1
    37     5    35    1
    38     8    36    1
    39    10    37    1
    40    14    38    1
    41    15    39    1
    42    18    40    1
    43    20    41    1
    44    25    42    1
    45    25    43    1
    46    26    44    1
