
     RDKit          3D

 44 46  0  0  0  0  0  0  0  0999 V2000
   -2.7348   -3.3063   -1.4721 N   0  0  0  0  0  0  0  0  0  0  0  0
   -3.0446   -2.0029   -1.0017 C   0  0  0  0  0  0  0  0  0  0  0  0
   -2.2066   -1.0312   -1.0349 N   0  0  0  0  0  0  0  0  0  0  0  0
   -2.5088    0.2944   -0.5625 C   0  0  2  0  0  0  0  0  0  0  0  0
   -3.0865    1.0892   -1.7191 C   0  0  0  0  0  0  0  0  0  0  0  0
   -4.2395    0.5212   -2.2231 F   0  0  0  0  0  0  0  0  0  0  0  0
   -1.2477    1.0015   -0.1650 C   0  0  0  0  0  0  0  0  0  0  0  0
   -0.0349    0.3826   -0.2874 C   0  0  0  0  0  0  0  0  0  0  0  0
    1.1683    1.0194    0.0719 C   0  0  0  0  0  0  0  0  0  0  0  0
    2.3889    0.3240   -0.0792 N   0  0  0  0  0  0  0  0  0  0  0  0
    3.6826    0.7609    0.2119 C   0  0  0  0  0  0  0  0  0  0  0  0
    3.8457    1.9084    0.6684 O   0  0  0  0  0  0  0  0  0  0  0  0
    4.8709   -0.0956   -0.0042 C   0  0  0  0  0  0  0  0  0  0  0  0
    6.1001    0.4300    0.3148 C   0  0  0  0  0  0  0  0  0  0  0  0
    7.2529   -0.3080    0.1409 C   0  0  0  0  0  0  0  0  0  0  0  0
    7.1254   -1.5855   -0.3623 C   0  0  0  0  0  0  0  0  0  0  0  0
    8.7176   -2.6135   -0.6058 Br  0  0  0  0  0  0  0  0  0  0  0  0
    5.8798   -2.0809   -0.6713 C   0  0  0  0  0  0  0  0  0  0  0  0
    4.7837   -1.3250   -0.4851 N   0  0  0  0  0  0  0  0  0  0  0  0
    1.0470    2.2855    0.5470 C   0  0  0  0  0  0  0  0  0  0  0  0
   -0.1688    2.9148    0.6731 C   0  0  0  0  0  0  0  0  0  0  0  0
   -0.2416    4.2019    1.1609 F   0  0  0  0  0  0  0  0  0  0  0  0
   -1.3452    2.2774    0.3163 C   0  0  0  0  0  0  0  0  0  0  0  0
   -2.4999    2.9665    0.4764 F   0  0  0  0  0  0  0  0  0  0  0  0
   -3.3738    0.2361    0.6404 C   0  0  0  0  0  0  0  0  0  0  0  0
   -4.3723   -0.8672    0.6947 C   0  0  1  0  0  0  0  0  0  0  0  0
   -5.7799   -0.3669    0.9409 C   0  0  0  0  0  0  0  0  0  0  0  0
   -5.7379    0.2971    2.1732 F   0  0  0  0  0  0  0  0  0  0  0  0
   -6.6452   -1.4295    1.1048 F   0  0  0  0  0  0  0  0  0  0  0  0
   -6.2560    0.4544   -0.0325 F   0  0  0  0  0  0  0  0  0  0  0  0
   -4.3039   -1.6847   -0.4613 O   0  0  0  0  0  0  0  0  0  0  0  0
   -2.2172   -3.9641   -0.8690 H   0  0  0  0  0  0  0  0  0  0  0  0
   -3.0329   -3.5847   -2.4201 H   0  0  0  0  0  0  0  0  0  0  0  0
   -2.3289    1.0022   -2.5530 H   0  0  0  0  0  0  0  0  0  0  0  0
   -3.1938    2.1573   -1.5293 H   0  0  0  0  0  0  0  0  0  0  0  0
    0.0276   -0.6472   -0.6772 H   0  0  0  0  0  0  0  0  0  0  0  0
    2.3315   -0.6715   -0.4672 H   0  0  0  0  0  0  0  0  0  0  0  0
    6.1982    1.4369    0.7111 H   0  0  0  0  0  0  0  0  0  0  0  0
    8.2412    0.1057    0.3940 H   0  0  0  0  0  0  0  0  0  0  0  0
    5.8093   -3.1036   -1.0711 H   0  0  0  0  0  0  0  0  0  0  0  0
    1.9114    2.8447    0.8441 H   0  0  0  0  0  0  0  0  0  0  0  0
   -2.6952    0.1307    1.5299 H   0  0  0  0  0  0  0  0  0  0  0  0
   -3.9273    1.1821    0.8407 H   0  0  0  0  0  0  0  0  0  0  0  0
   -4.1589   -1.5566    1.5697 H   0  0  0  0  0  0  0  0  0  0  0  0
  1  2  1  0
  2  3  2  0
  3  4  1  0
  4  5  1  6
  5  6  1  0
  4  7  1  0
  7  8  2  0
  8  9  1  0
  9 10  1  0
 10 11  1  0
 11 12  2  0
 11 13  1  0
 13 14  2  0
 14 15  1  0
 15 16  2  0
 16 17  1  0
 16 18  1  0
 18 19  2  0
  9 20  2  0
 20 21  1  0
 21 22  1  0
 21 23  2  0
 23 24  1  0
  4 25  1  0
 25 26  1  0
 26 27  1  0
 27 28  1  0
 27 29  1  0
 27 30  1  0
 26 31  1  0
 31  2  1  0
 23  7  1  0
 19 13  1  0
  1 32  1  0
  1 33  1  0
  5 34  1  0
  5 35  1  0
  8 36  1  0
 10 37  1  0
 14 38  1  0
 15 39  1  0
 18 40  1  0
 20 41  1  0
 25 42  1  0
 25 43  1  0
 26 44  1  1
M  END
$$$$
