@<TRIPOS>MOLECULE
*****
 47 51 0 0 0
SMALL
GASTEIGER

@<TRIPOS>ATOM
      1 O           7.5825    2.9186   -0.8975 O.3     1  UNL1       -0.4804
      2 C           6.4874    2.6508   -0.0899 C.2     1  UNL1        0.3091
      3 O           6.3309    1.8543   -1.0463 O.2     1  UNL1       -0.2507
      4 C           5.3817    2.4954    0.8880 C.3     1  UNL1        0.0699
      5 C           4.4164    1.4509    0.4605 C.ar    1  UNL1       -0.0367
      6 C           4.6564    0.1436    0.8887 C.ar    1  UNL1       -0.0575
      7 C           3.8078   -0.8877    0.5359 C.ar    1  UNL1       -0.0537
      8 C           2.6880   -0.6701   -0.2538 C.ar    1  UNL1       -0.0158
      9 C           2.4537    0.6226   -0.6752 C.ar    1  UNL1       -0.0537
     10 C           3.2998    1.6576   -0.3249 C.ar    1  UNL1       -0.0575
     11 C           1.8563   -1.8223   -0.5709 C.ar    1  UNL1        0.0087
     12 C           2.4193   -3.0215   -0.9714 C.ar    1  UNL1        0.0118
     13 N           1.4700   -3.9440   -1.2114 N.ar    1  UNL1       -0.3452
     14 C           0.2779   -3.3677   -0.9734 C.ar    1  UNL1        0.1387
     15 N          -1.0034   -3.7804   -1.0385 N.ar    1  UNL1       -0.2369
     16 C          -2.0007   -2.9273   -0.7242 C.ar    1  UNL1        0.0376
     17 C          -1.7929   -1.6051   -0.3235 C.ar    1  UNL1        0.0010
     18 C          -0.4907   -1.1534   -0.2473 C.ar    1  UNL1       -0.0413
     19 C           0.4956   -2.0640   -0.5789 C.ar    1  UNL1        0.0269
     20 C          -2.9494   -0.7740   -0.0084 C.ar    1  UNL1       -0.0158
     21 C          -4.0311   -1.4770    0.5326 C.ar    1  UNL1       -0.0534
     22 C          -5.1830   -0.7792    0.8671 C.ar    1  UNL1       -0.0535
     23 C          -5.2998    0.5751    0.6868 C.ar    1  UNL1       -0.0178
     24 C          -6.4353    1.2899    1.0120 C.ar    1  UNL1       -0.0540
     25 C          -6.5513    2.6487    0.8308 C.ar    1  UNL1       -0.0612
     26 C          -5.4510    3.3114    0.2894 C.ar    1  UNL1       -0.0612
     27 C          -4.3184    2.5976   -0.0348 C.ar    1  UNL1       -0.0540
     28 C          -4.2163    1.2372    0.1521 C.ar    1  UNL1       -0.0173
     29 C          -3.0481    0.5886   -0.1971 C.ar    1  UNL1       -0.0463
     30 H           8.5407    2.8274   -0.5249 H       1  UNL1        0.2951
     31 H           4.9026    3.5010    1.0113 H       1  UNL1        0.0426
     32 H           5.7997    2.2071    1.8549 H       1  UNL1        0.0426
     33 H           5.5064   -0.0921    1.5026 H       1  UNL1        0.0621
     34 H           4.0285   -1.8823    0.8871 H       1  UNL1        0.0624
     35 H           1.5896    0.7976   -1.2860 H       1  UNL1        0.0624
     36 H           3.1167    2.6714   -0.6552 H       1  UNL1        0.0621
     37 H           3.4731   -3.2976   -1.1094 H       1  UNL1        0.0814
     38 H           1.5675   -4.9420   -1.5261 H       1  UNL1        0.1668
     39 H          -2.9954   -3.3461   -0.8055 H       1  UNL1        0.0836
     40 H          -0.2903   -0.1558    0.0530 H       1  UNL1        0.0631
     41 H          -4.0876   -2.5260    0.7299 H       1  UNL1        0.0624
     42 H          -6.0686   -1.2631    1.2944 H       1  UNL1        0.0624
     43 H          -7.2750    0.7575    1.4294 H       1  UNL1        0.0624
     44 H          -7.4524    3.1804    1.0945 H       1  UNL1        0.0618
     45 H          -5.5245    4.3861    0.1387 H       1  UNL1        0.0618
     46 H          -3.5006    3.1504   -0.4472 H       1  UNL1        0.0624
     47 H          -2.1827    1.0803   -0.6182 H       1  UNL1        0.0630
@<TRIPOS>BOND
     1     1     2    1
     2     2     3    2
     3     2     4    1
     4     4     5    1
     5     5     6   ar
     6     6     7   ar
     7     7     8   ar
     8     8     9   ar
     9     9    10   ar
    10     8    11    1
    11    11    12   ar
    12    12    13   ar
    13    13    14   ar
    14    14    15   ar
    15    15    16   ar
    16    16    17   ar
    17    17    18   ar
    18    18    19   ar
    19    17    20    1
    20    20    21   ar
    21    21    22   ar
    22    22    23   ar
    23    23    24   ar
    24    24    25   ar
    25    25    26   ar
    26    26    27   ar
    27    27    28   ar
    28    28    29   ar
    29    10     5   ar
    30    19    11   ar
    31    29    20   ar
    32    19    14   ar
    33    28    23   ar
    34     1    30    1
    35     4    31    1
    36     4    32    1
    37     6    33    1
    38     7    34    1
    39     9    35    1
    40    10    36    1
    41    12    37    1
    42    13    38    1
    43    16    39    1
    44    18    40    1
    45    21    41    1
    46    22    42    1
    47    24    43    1
    48    25    44    1
    49    26    45    1
    50    27    46    1
    51    29    47    1
