
     RDKit          3D

 31 33  0  0  0  0  0  0  0  0999 V2000
   -1.2933    3.4425    0.1243 C   0  0  0  0  0  0  0  0  0  0  0  0
   -1.2001    2.4251   -0.9811 C   0  0  0  0  0  0  0  0  0  0  0  0
   -0.4768    1.2359   -0.5724 N   0  0  0  0  0  0  0  0  0  0  0  0
    0.8164    1.0745   -0.6969 N   0  0  0  0  0  0  0  0  0  0  0  0
    1.4954   -0.0183   -0.3236 C   0  0  0  0  0  0  0  0  0  0  0  0
    2.9595   -0.0783   -0.5180 C   0  0  0  0  0  0  0  0  0  0  0  0
    3.6896   -0.3527   -1.5935 C   0  0  0  0  0  0  0  0  0  0  0  0
    5.0284   -0.3515   -1.5466 C   0  0  0  0  0  0  0  0  0  0  0  0
    5.6073   -0.0537   -0.3363 C   0  0  0  0  0  0  0  0  0  0  0  0
    4.1721    0.2257    0.7373 S   0  0  0  0  0  0  0  0  0  0  0  0
    0.8234   -1.0453    0.2246 N   0  0  0  0  0  0  0  0  0  0  0  0
   -0.4951   -1.0045    0.4053 C   0  0  0  0  0  0  0  0  0  0  0  0
   -1.2240   -2.0332    0.9628 C   0  0  0  0  0  0  0  0  0  0  0  0
   -0.6161   -3.0700    1.3225 O   0  0  0  0  0  0  0  0  0  0  0  0
   -2.5514   -1.8537    1.0845 N   0  0  0  0  0  0  0  0  0  0  0  0
   -3.3473   -2.9308    1.6730 C   0  0  0  0  0  0  0  0  0  0  0  0
   -3.1728   -0.7191    0.6843 C   0  0  0  0  0  0  0  0  0  0  0  0
   -4.4401   -0.6773    0.8569 O   0  0  0  0  0  0  0  0  0  0  0  0
   -2.5158    0.3175    0.1342 N   0  0  0  0  0  0  0  0  0  0  0  0
   -1.1885    0.2259   -0.0257 C   0  0  0  0  0  0  0  0  0  0  0  0
   -1.3174    2.8849    1.0833 H   0  0  0  0  0  0  0  0  0  0  0  0
   -0.4345    4.1244    0.0837 H   0  0  0  0  0  0  0  0  0  0  0  0
   -2.2483    3.9944   -0.0217 H   0  0  0  0  0  0  0  0  0  0  0  0
   -0.7042    2.9132   -1.8682 H   0  0  0  0  0  0  0  0  0  0  0  0
   -2.2020    2.1197   -1.2964 H   0  0  0  0  0  0  0  0  0  0  0  0
    3.1636   -0.5906   -2.5623 H   0  0  0  0  0  0  0  0  0  0  0  0
    5.6880   -0.5785   -2.4345 H   0  0  0  0  0  0  0  0  0  0  0  0
    6.6823    0.0182   -0.0148 H   0  0  0  0  0  0  0  0  0  0  0  0
   -3.2893   -3.8152    0.9955 H   0  0  0  0  0  0  0  0  0  0  0  0
   -2.9980   -3.1685    2.6829 H   0  0  0  0  0  0  0  0  0  0  0  0
   -4.4112   -2.6604    1.7369 H   0  0  0  0  0  0  0  0  0  0  0  0
  1  2  1  0
  2  3  1  0
  3  4  1  0
  4  5  2  0
  5  6  1  0
  6  7  2  0
  7  8  1  0
  8  9  2  0
  9 10  1  0
  5 11  1  0
 11 12  2  0
 12 13  1  0
 13 14  2  0
 13 15  1  0
 15 16  1  0
 15 17  1  0
 17 18  2  0
 17 19  1  0
 19 20  2  0
 20  3  1  0
 10  6  1  0
 20 12  1  0
  1 21  1  0
  1 22  1  0
  1 23  1  0
  2 24  1  0
  2 25  1  0
  7 26  1  0
  8 27  1  0
  9 28  1  0
 16 29  1  0
 16 30  1  0
 16 31  1  0
M  END
$$$$
