@<TRIPOS>MOLECULE
*****
 31 33 0 0 0
SMALL
GASTEIGER

@<TRIPOS>ATOM
      1 C          -1.2933    3.4425    0.1243 C.3     1  UNL1       -0.0454
      2 C          -1.2001    2.4251   -0.9811 C.3     1  UNL1        0.0411
      3 N          -0.4768    1.2359   -0.5724 N.ar    1  UNL1       -0.2432
      4 N           0.8164    1.0745   -0.6969 N.ar    1  UNL1       -0.1487
      5 C           1.4954   -0.0183   -0.3236 C.ar    1  UNL1        0.1873
      6 C           2.9595   -0.0783   -0.5180 C.ar    1  UNL1        0.0580
      7 C           3.6896   -0.3527   -1.5935 C.ar    1  UNL1       -0.0439
      8 C           5.0284   -0.3515   -1.5466 C.ar    1  UNL1       -0.0540
      9 C           5.6073   -0.0537   -0.3363 C.ar    1  UNL1       -0.0236
     10 S           4.1721    0.2257    0.7373 S.2     1  UNL1       -0.0935
     11 N           0.8234   -1.0453    0.2246 N.ar    1  UNL1       -0.2168
     12 C          -0.4951   -1.0045    0.4053 C.ar    1  UNL1        0.1744
     13 C          -1.2240   -2.0332    0.9628 C.ar    1  UNL1        0.2841
     14 O          -0.6161   -3.0700    1.3225 O.2     1  UNL1       -0.2651
     15 N          -2.5514   -1.8537    1.0845 N.ar    1  UNL1       -0.2607
     16 C          -3.3473   -2.9308    1.6730 C.3     1  UNL1        0.0197
     17 C          -3.1728   -0.7191    0.6843 C.ar    1  UNL1        0.3529
     18 O          -4.4401   -0.6773    0.8569 O.2     1  UNL1       -0.2443
     19 N          -2.5158    0.3175    0.1342 N.ar    1  UNL1       -0.1717
     20 C          -1.1885    0.2259   -0.0257 C.ar    1  UNL1        0.1860
     21 H          -1.3174    2.8849    1.0833 H       1  UNL1        0.0247
     22 H          -0.4345    4.1244    0.0837 H       1  UNL1        0.0247
     23 H          -2.2483    3.9944   -0.0217 H       1  UNL1        0.0247
     24 H          -0.7042    2.9132   -1.8682 H       1  UNL1        0.0507
     25 H          -2.2020    2.1197   -1.2964 H       1  UNL1        0.0507
     26 H           3.1636   -0.5906   -2.5623 H       1  UNL1        0.0630
     27 H           5.6880   -0.5785   -2.4345 H       1  UNL1        0.0623
     28 H           6.6823    0.0182   -0.0148 H       1  UNL1        0.0693
     29 H          -3.2893   -3.8152    0.9955 H       1  UNL1        0.0458
     30 H          -2.9980   -3.1685    2.6829 H       1  UNL1        0.0458
     31 H          -4.4112   -2.6604    1.7369 H       1  UNL1        0.0458
@<TRIPOS>BOND
     1     1     2    1
     2     2     3    1
     3     3     4   ar
     4     4     5   ar
     5     5     6    1
     6     6     7   ar
     7     7     8   ar
     8     8     9   ar
     9     9    10   ar
    10     5    11   ar
    11    11    12   ar
    12    12    13   ar
    13    13    14    2
    14    13    15   ar
    15    15    16    1
    16    15    17   ar
    17    17    18    2
    18    17    19   ar
    19    19    20   ar
    20    20     3   ar
    21    10     6   ar
    22    20    12    1
    23     1    21    1
    24     1    22    1
    25     1    23    1
    26     2    24    1
    27     2    25    1
    28     7    26    1
    29     8    27    1
    30     9    28    1
    31    16    29    1
    32    16    30    1
    33    16    31    1
