@<TRIPOS>MOLECULE
*****
 56 58 0 0 0
SMALL
GASTEIGER

@<TRIPOS>ATOM
      1 C           1.7483    1.9402   -0.1972 C.3     1  UNL1        0.0447
      2 C           1.2812    3.2912   -0.6935 C.3     1  UNL1       -0.0464
      3 C           2.6864    1.3864   -1.2645 C.3     1  UNL1        0.0292
      4 N           3.2492    0.2066   -0.6916 N.pl3   1  UNL1       -0.3271
      5 C           2.2741   -0.7773   -0.3721 C.3     1  UNL1        0.0267
      6 C           0.8580   -0.3082   -0.4074 C.3     1  UNL1        0.0366
      7 N           0.6386    1.0544   -0.1154 N.3     1  UNL1       -0.1708
      8 S          -0.3509    1.3147    1.2630 S.O2    1  UNL1        0.0612
      9 O           0.2164    0.5952    2.4800 O.2     1  UNL1       -0.1528
     10 O          -0.4554    2.7427    1.6416 O.2     1  UNL1       -0.1528
     11 C          -1.9050    0.6194    0.9691 C.ar    1  UNL1        0.1055
     12 C          -2.3643   -0.6518    1.2460 C.ar    1  UNL1       -0.0351
     13 C          -3.6545   -1.0233    0.9306 C.ar    1  UNL1       -0.0562
     14 C          -4.5268   -0.1391    0.3294 C.ar    1  UNL1       -0.0419
     15 C          -4.0948    1.1403    0.0404 C.ar    1  UNL1       -0.0562
     16 C          -2.8021    1.5021    0.3599 C.ar    1  UNL1       -0.0351
     17 C          -5.9225   -0.5548   -0.0069 C.3     1  UNL1       -0.0127
     18 C          -6.1176   -1.9798    0.4119 C.3     1  UNL1       -0.0560
     19 C          -6.2801   -0.3073   -1.4454 C.3     1  UNL1       -0.0560
     20 C          -6.8229    0.2865    0.8949 C.3     1  UNL1       -0.0560
     21 C           4.6287   -0.0201   -0.4417 C.ar    1  UNL1        0.0302
     22 C           5.6149    0.9004   -0.7232 C.ar    1  UNL1       -0.0343
     23 C           6.9621    0.6929   -0.4854 C.ar    1  UNL1        0.0173
     24 C           7.3371   -0.5139    0.0691 C.ar    1  UNL1        0.2733
     25 C           6.3801   -1.4624    0.3659 C.ar    1  UNL1        0.0173
     26 C           5.0302   -1.2169    0.1115 C.ar    1  UNL1       -0.0343
     27 N           8.6938   -0.8165    0.3484 N.pl3   1  UNL1        0.0796
     28 O           9.0274   -2.0178    0.8960 O.co2   1  UNL1       -0.5760
     29 O           9.5861    0.0147    0.0945 O.2     1  UNL1        0.0414
     30 H           2.3024    2.0982    0.7451 H       1  UNL1        0.0493
     31 H           1.2609    4.0281    0.1403 H       1  UNL1        0.0246
     32 H           1.9946    3.6981   -1.4446 H       1  UNL1        0.0246
     33 H           0.2897    3.2161   -1.2126 H       1  UNL1        0.0246
     34 H           3.3884    2.1383   -1.6296 H       1  UNL1        0.0479
     35 H           2.0142    1.0827   -2.1012 H       1  UNL1        0.0479
     36 H           2.5079   -1.2144    0.6434 H       1  UNL1        0.0477
     37 H           2.3800   -1.6256   -1.0806 H       1  UNL1        0.0477
     38 H           0.3986   -0.5196   -1.4089 H       1  UNL1        0.0459
     39 H           0.2891   -0.9358    0.3092 H       1  UNL1        0.0459
     40 H          -1.6200   -1.2738    1.7146 H       1  UNL1        0.0637
     41 H          -3.9383   -2.0321    1.1780 H       1  UNL1        0.0621
     42 H          -4.8115    1.7874   -0.4265 H       1  UNL1        0.0621
     43 H          -2.5847    2.5392    0.0801 H       1  UNL1        0.0637
     44 H          -5.4059   -2.5986   -0.1604 H       1  UNL1        0.0238
     45 H          -7.1806   -2.2304    0.2208 H       1  UNL1        0.0238
     46 H          -5.9535   -2.0502    1.4958 H       1  UNL1        0.0238
     47 H          -7.2061   -0.9252   -1.6338 H       1  UNL1        0.0238
     48 H          -5.5150   -0.6664   -2.1404 H       1  UNL1        0.0238
     49 H          -6.5927    0.7552   -1.6164 H       1  UNL1        0.0238
     50 H          -6.8121    1.3520    0.6379 H       1  UNL1        0.0238
     51 H          -6.4225    0.1938    1.9354 H       1  UNL1        0.0238
     52 H          -7.8360   -0.1486    0.8278 H       1  UNL1        0.0238
     53 H           5.3501    1.8539   -1.1578 H       1  UNL1        0.0638
     54 H           7.7331    1.3999   -0.7001 H       1  UNL1        0.0686
     55 H           6.6939   -2.3974    0.7981 H       1  UNL1        0.0686
     56 H           4.3601   -2.0213    0.3786 H       1  UNL1        0.0638
@<TRIPOS>UNITY_ATOM_ATTR
27 1
charge 1
28 1
charge -1
@<TRIPOS>BOND
     1     1     2    1
     2     1     3    1
     3     3     4    1
     4     4     5    1
     5     5     6    1
     6     6     7    1
     7     7     8    1
     8     8     9    2
     9     8    10    2
    10     8    11    1
    11    11    12   ar
    12    12    13   ar
    13    13    14   ar
    14    14    15   ar
    15    15    16   ar
    16    14    17    1
    17    17    18    1
    18    17    19    1
    19    17    20    1
    20     4    21    1
    21    21    22   ar
    22    22    23   ar
    23    23    24   ar
    24    24    25   ar
    25    25    26   ar
    26    24    27    1
    27    27    28    1
    28    27    29    2
    29     7     1    1
    30    16    11   ar
    31    26    21   ar
    32     1    30    1
    33     2    31    1
    34     2    32    1
    35     2    33    1
    36     3    34    1
    37     3    35    1
    38     5    36    1
    39     5    37    1
    40     6    38    1
    41     6    39    1
    42    12    40    1
    43    13    41    1
    44    15    42    1
    45    16    43    1
    46    18    44    1
    47    18    45    1
    48    18    46    1
    49    19    47    1
    50    19    48    1
    51    19    49    1
    52    20    50    1
    53    20    51    1
    54    20    52    1
    55    22    53    1
    56    23    54    1
    57    25    55    1
    58    26    56    1
