@<TRIPOS>MOLECULE
*****
 63 64 0 0 0
SMALL
GASTEIGER

@<TRIPOS>ATOM
      1 C          -4.2376   -0.5965   -1.4012 C.3     1  UNL1        0.0863
      2 N          -3.1162   -1.5019   -1.6355 N.3     1  UNL1       -0.3197
      3 C          -5.4872   -1.3802   -1.1185 C.3     1  UNL1       -0.0039
      4 C          -6.6899   -0.5976   -0.8637 C.ar    1  UNL1       -0.0454
      5 C          -7.3871   -0.2631   -2.0205 C.ar    1  UNL1       -0.0585
      6 C          -8.5653    0.4715   -1.9492 C.ar    1  UNL1       -0.0615
      7 C          -9.0991    0.9017   -0.7519 C.ar    1  UNL1       -0.0617
      8 C          -8.3922    0.5607    0.4002 C.ar    1  UNL1       -0.0615
      9 C          -7.2392   -0.1597    0.3123 C.ar    1  UNL1       -0.0585
     10 C          -3.9668    0.2988   -0.2492 C.2     1  UNL1        0.2302
     11 O          -4.9060    1.1666   -0.1415 O.2     1  UNL1       -0.2741
     12 N          -2.8761    0.3179    0.6864 N.am    1  UNL1       -0.3118
     13 C          -3.1347    1.4040    1.5922 C.3     1  UNL1        0.0351
     14 C          -2.0868    1.5505    2.6349 C.3     1  UNL1        0.0633
     15 O          -1.8535    0.5352    3.4836 O.3     1  UNL1       -0.3760
     16 C          -1.3765   -0.6564    3.0652 C.3     1  UNL1        0.0711
     17 C           0.0133   -0.6166    2.4414 C.3     1  UNL1        0.0711
     18 O           0.1457    0.1634    1.3503 O.3     1  UNL1       -0.3760
     19 C           1.3420    0.2380    0.7097 C.3     1  UNL1        0.0633
     20 C           2.4169    0.7600    1.5986 C.3     1  UNL1        0.0353
     21 N           3.7055    0.8502    0.9067 N.am    1  UNL1       -0.3092
     22 C           4.3751   -0.2654    0.3358 C.2     1  UNL1        0.2441
     23 O           3.8479   -1.3893    0.4220 O.2     1  UNL1       -0.2702
     24 C           5.6555   -0.1763   -0.3529 C.ar    1  UNL1        0.0368
     25 C           6.1923   -1.3397   -0.8608 C.ar    1  UNL1       -0.0478
     26 C           7.4088   -1.3931   -1.5404 C.ar    1  UNL1       -0.0346
     27 C           8.1328   -0.2359   -1.7278 C.ar    1  UNL1        0.1050
     28 C           7.6014    0.9311   -1.2221 C.ar    1  UNL1       -0.0346
     29 C           6.3890    0.9698   -0.5474 C.ar    1  UNL1       -0.0478
     30 S           9.6686   -0.1541   -2.5586 S.O2    1  UNL1        0.0559
     31 N          10.9836   -0.3814   -1.4414 N.3     1  UNL1       -0.2035
     32 O           9.8072    1.1429   -3.2689 O.2     1  UNL1       -0.1533
     33 O           9.7258   -1.2515   -3.6100 O.2     1  UNL1       -0.1533
     34 H          -4.3731   -0.0316   -2.3410 H       1  UNL1        0.0557
     35 H          -2.4388   -1.0856   -2.3403 H       1  UNL1        0.1189
     36 H          -3.4137   -2.4644   -1.8829 H       1  UNL1        0.1189
     37 H          -5.6215   -2.0988   -1.9775 H       1  UNL1        0.0333
     38 H          -5.3370   -2.0497   -0.2201 H       1  UNL1        0.0333
     39 H          -7.1109   -0.5191   -3.0401 H       1  UNL1        0.0620
     40 H          -9.1412    0.7533   -2.8387 H       1  UNL1        0.0618
     41 H          -9.9997    1.4677   -0.6446 H       1  UNL1        0.0618
     42 H          -8.7487    0.8622    1.3695 H       1  UNL1        0.0618
     43 H          -6.6718   -0.4409    1.1903 H       1  UNL1        0.0620
     44 H          -2.2939   -0.4790    0.3477 H       1  UNL1        0.1488
     45 H          -3.1608    2.3486    0.9647 H       1  UNL1        0.0484
     46 H          -4.1635    1.3433    2.0263 H       1  UNL1        0.0484
     47 H          -1.1702    1.9464    2.1241 H       1  UNL1        0.0575
     48 H          -2.4064    2.4390    3.2737 H       1  UNL1        0.0575
     49 H          -1.1953   -1.2620    4.0238 H       1  UNL1        0.0583
     50 H          -2.0709   -1.3159    2.5076 H       1  UNL1        0.0583
     51 H           0.7486   -0.2755    3.2302 H       1  UNL1        0.0583
     52 H           0.2641   -1.6999    2.2446 H       1  UNL1        0.0583
     53 H           1.2244    0.9885   -0.1316 H       1  UNL1        0.0575
     54 H           1.6281   -0.7248    0.2051 H       1  UNL1        0.0575
     55 H           2.5264    0.0442    2.4669 H       1  UNL1        0.0485
     56 H           2.1590    1.7864    1.9186 H       1  UNL1        0.0485
     57 H           4.2060    1.7617    0.7973 H       1  UNL1        0.1491
     58 H           5.7076   -2.3172   -0.7725 H       1  UNL1        0.0626
     59 H           7.8162   -2.3142   -1.9329 H       1  UNL1        0.0637
     60 H           8.0947    1.8813   -1.3202 H       1  UNL1        0.0637
     61 H           5.9894    1.8943   -0.1584 H       1  UNL1        0.0626
     62 H          11.1198    0.4948   -0.8881 H       1  UNL1        0.1442
     63 H          10.8362   -1.2313   -0.8791 H       1  UNL1        0.1442
@<TRIPOS>BOND
     1     1     2    1
     2     1     3    1
     3     3     4    1
     4     4     5   ar
     5     5     6   ar
     6     6     7   ar
     7     7     8   ar
     8     8     9   ar
     9     1    10    1
    10    10    11    2
    11    10    12   am
    12    12    13    1
    13    13    14    1
    14    14    15    1
    15    15    16    1
    16    16    17    1
    17    17    18    1
    18    18    19    1
    19    19    20    1
    20    20    21    1
    21    21    22   am
    22    22    23    2
    23    22    24    1
    24    24    25   ar
    25    25    26   ar
    26    26    27   ar
    27    27    28   ar
    28    28    29   ar
    29    27    30    1
    30    30    31    1
    31    30    32    2
    32    30    33    2
    33     9     4   ar
    34    29    24   ar
    35     1    34    1
    36     2    35    1
    37     2    36    1
    38     3    37    1
    39     3    38    1
    40     5    39    1
    41     6    40    1
    42     7    41    1
    43     8    42    1
    44     9    43    1
    45    12    44    1
    46    13    45    1
    47    13    46    1
    48    14    47    1
    49    14    48    1
    50    16    49    1
    51    16    50    1
    52    17    51    1
    53    17    52    1
    54    19    53    1
    55    19    54    1
    56    20    55    1
    57    20    56    1
    58    21    57    1
    59    25    58    1
    60    26    59    1
    61    28    60    1
    62    29    61    1
    63    31    62    1
    64    31    63    1
