
     RDKit          3D

 50 52  0  0  0  0  0  0  0  0999 V2000
   -5.5888   -0.1395   -1.0529 C   0  0  0  0  0  0  0  0  0  0  0  0
   -4.3679    0.6326   -0.5373 C   0  0  0  0  0  0  0  0  0  0  0  0
   -4.8665    2.0562   -0.2602 C   0  0  0  0  0  0  0  0  0  0  0  0
   -3.8815    0.1051    0.7437 C   0  0  0  0  0  0  0  0  0  0  0  0
   -4.7398    0.2977    1.8851 N   0  0  0  0  0  0  0  0  0  0  0  0
   -2.7877   -0.5014    0.9532 N   0  0  0  0  0  0  0  0  0  0  0  0
   -1.7816   -0.8046   -0.0271 C   0  0  2  0  0  0  0  0  0  0  0  0
   -2.2153   -2.0629   -0.7486 C   0  0  0  0  0  0  0  0  0  0  0  0
   -0.5325   -1.0637    0.6872 C   0  0  0  0  0  0  0  0  0  0  0  0
    0.6176   -0.3475    0.5093 C   0  0  0  0  0  0  0  0  0  0  0  0
    1.7579   -0.6527    1.2176 C   0  0  0  0  0  0  0  0  0  0  0  0
    2.9698    0.1124    1.0214 N   0  0  0  0  0  0  0  0  0  0  0  0
    3.9334   -0.2333    0.0638 C   0  0  0  0  0  0  0  0  0  0  0  0
    3.6587   -1.2768   -0.6226 O   0  0  0  0  0  0  0  0  0  0  0  0
    5.1757    0.4467   -0.2249 C   0  0  0  0  0  0  0  0  0  0  0  0
    5.9984   -0.0678   -1.2227 C   0  0  0  0  0  0  0  0  0  0  0  0
    7.2019    0.5035   -1.5754 C   0  0  0  0  0  0  0  0  0  0  0  0
    7.6625    1.6370   -0.9454 C   0  0  0  0  0  0  0  0  0  0  0  0
    9.1995    2.3674   -1.3954 Cl  0  0  0  0  0  0  0  0  0  0  0  0
    6.8712    2.1675    0.0441 C   0  0  0  0  0  0  0  0  0  0  0  0
    5.6458    1.5779    0.3967 C   0  0  0  0  0  0  0  0  0  0  0  0
    4.8949    2.1287    1.3751 F   0  0  0  0  0  0  0  0  0  0  0  0
    1.7828   -1.6822    2.1244 C   0  0  0  0  0  0  0  0  0  0  0  0
    0.6440   -2.4211    2.3264 C   0  0  0  0  0  0  0  0  0  0  0  0
   -0.4925   -2.1095    1.6140 C   0  0  0  0  0  0  0  0  0  0  0  0
   -1.6080   -2.8684    1.8427 F   0  0  0  0  0  0  0  0  0  0  0  0
   -1.6023    0.2769   -1.0549 C   0  0  0  0  0  0  0  0  0  0  0  0
   -3.1540    0.7368   -1.7950 S   0  0  0  0  0  6  0  0  0  0  0  0
   -3.0270    2.1186   -2.3573 O   0  0  0  0  0  0  0  0  0  0  0  0
   -3.4538   -0.2440   -2.9102 O   0  0  0  0  0  0  0  0  0  0  0  0
   -5.4265   -1.2109   -0.8178 H   0  0  0  0  0  0  0  0  0  0  0  0
   -6.4762    0.2687   -0.5018 H   0  0  0  0  0  0  0  0  0  0  0  0
   -5.6669    0.0526   -2.1414 H   0  0  0  0  0  0  0  0  0  0  0  0
   -3.9838    2.6291    0.0964 H   0  0  0  0  0  0  0  0  0  0  0  0
   -5.2766    2.4461   -1.2077 H   0  0  0  0  0  0  0  0  0  0  0  0
   -5.6109    2.0273    0.5522 H   0  0  0  0  0  0  0  0  0  0  0  0
   -5.7666    0.1507    1.7752 H   0  0  0  0  0  0  0  0  0  0  0  0
   -4.3924    0.5765    2.8179 H   0  0  0  0  0  0  0  0  0  0  0  0
   -2.0993   -1.9369   -1.8435 H   0  0  0  0  0  0  0  0  0  0  0  0
   -1.5737   -2.9172   -0.4510 H   0  0  0  0  0  0  0  0  0  0  0  0
   -3.2976   -2.2876   -0.5764 H   0  0  0  0  0  0  0  0  0  0  0  0
    0.6644    0.4772   -0.1936 H   0  0  0  0  0  0  0  0  0  0  0  0
    3.1160    0.9403    1.6158 H   0  0  0  0  0  0  0  0  0  0  0  0
    5.6764   -0.9699   -1.7549 H   0  0  0  0  0  0  0  0  0  0  0  0
    7.8314    0.0971   -2.3496 H   0  0  0  0  0  0  0  0  0  0  0  0
    7.2017    3.0597    0.5622 H   0  0  0  0  0  0  0  0  0  0  0  0
    2.6757   -1.9187    2.6768 H   0  0  0  0  0  0  0  0  0  0  0  0
    0.6035   -3.2465    3.0299 H   0  0  0  0  0  0  0  0  0  0  0  0
   -0.9657   -0.1241   -1.8675 H   0  0  0  0  0  0  0  0  0  0  0  0
   -1.1482    1.1967   -0.6902 H   0  0  0  0  0  0  0  0  0  0  0  0
  1  2  1  0
  2  3  1  0
  2  4  1  0
  4  5  1  0
  4  6  2  0
  6  7  1  0
  7  8  1  6
  7  9  1  0
  9 10  2  0
 10 11  1  0
 11 12  1  0
 12 13  1  0
 13 14  2  0
 13 15  1  0
 15 16  2  0
 16 17  1  0
 17 18  2  0
 18 19  1  0
 18 20  1  0
 20 21  2  0
 21 22  1  0
 11 23  2  0
 23 24  1  0
 24 25  2  0
 25 26  1  0
  7 27  1  0
 27 28  1  0
 28 29  2  0
 28 30  2  0
 28  2  1  0
 25  9  1  0
 21 15  1  0
  1 31  1  0
  1 32  1  0
  1 33  1  0
  3 34  1  0
  3 35  1  0
  3 36  1  0
  5 37  1  0
  5 38  1  0
  8 39  1  0
  8 40  1  0
  8 41  1  0
 10 42  1  0
 12 43  1  0
 16 44  1  0
 17 45  1  0
 20 46  1  0
 23 47  1  0
 24 48  1  0
 27 49  1  0
 27 50  1  0
M  END
$$$$
