@<TRIPOS>MOLECULE
*****
 50 52 0 0 0
SMALL
GASTEIGER

@<TRIPOS>ATOM
      1 C          -5.5888   -0.1395   -1.0529 C.3     1  UNL1       -0.0288
      2 C          -4.3679    0.6326   -0.5373 C.3     1  UNL1        0.1831
      3 C          -4.8665    2.0562   -0.2602 C.3     1  UNL1       -0.0288
      4 C          -3.8815    0.1051    0.7437 C.2     1  UNL1        0.3067
      5 N          -4.7398    0.2977    1.8851 N.pl3   1  UNL1       -0.2488
      6 N          -2.7877   -0.5014    0.9532 N.2     1  UNL1       -0.0727
      7 C          -1.7816   -0.8046   -0.0271 C.3     1  UNL1        0.1959
      8 C          -2.2153   -2.0629   -0.7486 C.3     1  UNL1       -0.0112
      9 C          -0.5325   -1.0637    0.6872 C.ar    1  UNL1        0.0420
     10 C           0.6176   -0.3475    0.5093 C.ar    1  UNL1       -0.0301
     11 C           1.7579   -0.6527    1.2176 C.ar    1  UNL1        0.0342
     12 N           2.9698    0.1124    1.0214 N.am    1  UNL1       -0.2814
     13 C           3.9334   -0.2333    0.0638 C.2     1  UNL1        0.2510
     14 O           3.6587   -1.2768   -0.6226 O.2     1  UNL1       -0.2698
     15 C           5.1757    0.4467   -0.2249 C.ar    1  UNL1        0.0722
     16 C           5.9984   -0.0678   -1.2227 C.ar    1  UNL1       -0.0455
     17 C           7.2019    0.5035   -1.5754 C.ar    1  UNL1       -0.0425
     18 C           7.6625    1.6370   -0.9454 C.ar    1  UNL1        0.0437
     19 CL          9.1995    2.3674   -1.3954 Cl      1  UNL1       -0.0835
     20 C           6.8712    2.1675    0.0441 C.ar    1  UNL1       -0.0074
     21 C           5.6458    1.5779    0.3967 C.ar    1  UNL1        0.1369
     22 F           4.8949    2.1287    1.3751 F       1  UNL1       -0.2047
     23 C           1.7828   -1.6822    2.1244 C.ar    1  UNL1       -0.0377
     24 C           0.6440   -2.4211    2.3264 C.ar    1  UNL1       -0.0243
     25 C          -0.4925   -2.1095    1.6140 C.ar    1  UNL1        0.1311
     26 F          -1.6080   -2.8684    1.8427 F       1  UNL1       -0.2050
     27 C          -1.6023    0.2769   -1.0549 C.3     1  UNL1        0.1183
     28 S          -3.1540    0.7368   -1.7950 S.O2    1  UNL1       -0.0101
     29 O          -3.0270    2.1186   -2.3573 O.2     1  UNL1       -0.1731
     30 O          -3.4538   -0.2440   -2.9102 O.2     1  UNL1       -0.1731
     31 H          -5.4265   -1.2109   -0.8178 H       1  UNL1        0.0256
     32 H          -6.4762    0.2687   -0.5018 H       1  UNL1        0.0256
     33 H          -5.6669    0.0526   -2.1414 H       1  UNL1        0.0256
     34 H          -3.9838    2.6291    0.0964 H       1  UNL1        0.0256
     35 H          -5.2766    2.4461   -1.2077 H       1  UNL1        0.0256
     36 H          -5.6109    2.0273    0.5522 H       1  UNL1        0.0256
     37 H          -5.7666    0.1507    1.7752 H       1  UNL1        0.2881
     38 H          -4.3924    0.5765    2.8179 H       1  UNL1        0.2881
     39 H          -2.0993   -1.9369   -1.8435 H       1  UNL1        0.0279
     40 H          -1.5737   -2.9172   -0.4510 H       1  UNL1        0.0279
     41 H          -3.2976   -2.2876   -0.5764 H       1  UNL1        0.0279
     42 H           0.6644    0.4772   -0.1936 H       1  UNL1        0.0641
     43 H           3.1160    0.9403    1.6158 H       1  UNL1        0.1551
     44 H           5.6764   -0.9699   -1.7549 H       1  UNL1        0.0626
     45 H           7.8314    0.0971   -2.3496 H       1  UNL1        0.0632
     46 H           7.2017    3.0597    0.5622 H       1  UNL1        0.0661
     47 H           2.6757   -1.9187    2.6768 H       1  UNL1        0.0637
     48 H           0.6035   -3.2465    3.0299 H       1  UNL1        0.0647
     49 H          -0.9657   -0.1241   -1.8675 H       1  UNL1        0.0550
     50 H          -1.1482    1.1967   -0.6902 H       1  UNL1        0.0550
@<TRIPOS>BOND
     1     1     2    1
     2     2     3    1
     3     2     4    1
     4     4     5    1
     5     4     6    2
     6     6     7    1
     7     7     8    1
     8     7     9    1
     9     9    10   ar
    10    10    11   ar
    11    11    12    1
    12    12    13   am
    13    13    14    2
    14    13    15    1
    15    15    16   ar
    16    16    17   ar
    17    17    18   ar
    18    18    19    1
    19    18    20   ar
    20    20    21   ar
    21    21    22    1
    22    11    23   ar
    23    23    24   ar
    24    24    25   ar
    25    25    26    1
    26     7    27    1
    27    27    28    1
    28    28    29    2
    29    28    30    2
    30    28     2    1
    31    25     9   ar
    32    21    15   ar
    33     1    31    1
    34     1    32    1
    35     1    33    1
    36     3    34    1
    37     3    35    1
    38     3    36    1
    39     5    37    1
    40     5    38    1
    41     8    39    1
    42     8    40    1
    43     8    41    1
    44    10    42    1
    45    12    43    1
    46    16    44    1
    47    17    45    1
    48    20    46    1
    49    23    47    1
    50    24    48    1
    51    27    49    1
    52    27    50    1
