@<TRIPOS>MOLECULE
*****
 39 40 0 0 0
SMALL
GASTEIGER

@<TRIPOS>ATOM
      1 C          -2.1912    3.4680    0.4212 C.3     1  UNL1        0.0790
      2 O          -2.6362    2.1646    0.7095 O.3     1  UNL1       -0.4913
      3 C          -1.9487    1.0255    0.3112 C.ar    1  UNL1        0.1654
      4 C          -0.7710    1.0843   -0.4010 C.ar    1  UNL1       -0.0126
      5 C          -0.0818   -0.0386   -0.8007 C.ar    1  UNL1       -0.0358
      6 C           1.1660    0.0800   -1.5722 C.3     1  UNL1        0.0025
      7 C           2.4059    0.1607   -0.8210 C.ar    1  UNL1        0.0146
      8 C           3.5813    0.1900   -1.5669 C.ar    1  UNL1        0.0379
      9 N           4.7869    0.2593   -1.0312 N.ar    1  UNL1       -0.2227
     10 C           4.9331    0.3059    0.2963 C.ar    1  UNL1        0.2142
     11 N           6.2455    0.3797    0.8298 N.pl3   1  UNL1       -0.3274
     12 N           3.8306    0.2801    1.0522 N.ar    1  UNL1       -0.1999
     13 C           2.5724    0.2091    0.5365 C.ar    1  UNL1        0.1247
     14 N           1.4898    0.1908    1.4298 N.pl3   1  UNL1       -0.3428
     15 C          -0.6343   -1.2538   -0.4489 C.ar    1  UNL1       -0.0126
     16 C          -1.8221   -1.3322    0.2696 C.ar    1  UNL1        0.1654
     17 O          -2.3918   -2.5452    0.6318 O.3     1  UNL1       -0.4913
     18 C          -1.7130   -3.7220    0.2391 C.3     1  UNL1        0.0790
     19 C          -2.4871   -0.1924    0.6545 C.ar    1  UNL1        0.2035
     20 O          -3.6902   -0.2660    1.3822 O.3     1  UNL1       -0.4885
     21 C          -4.9448   -0.3198    0.7268 C.3     1  UNL1        0.0791
     22 H          -1.1073    3.5970    0.5418 H       1  UNL1        0.0660
     23 H          -2.7690    4.1905    1.0334 H       1  UNL1        0.0660
     24 H          -2.4207    3.6846   -0.6468 H       1  UNL1        0.0660
     25 H          -0.3965    2.0663   -0.6417 H       1  UNL1        0.0658
     26 H           1.2816   -0.7492   -2.3145 H       1  UNL1        0.0363
     27 H           1.1330    1.0085   -2.2290 H       1  UNL1        0.0363
     28 H           3.5309    0.1547   -2.6618 H       1  UNL1        0.0834
     29 H           7.0390    0.7464    0.2661 H       1  UNL1        0.1452
     30 H           6.4248    0.0632    1.8013 H       1  UNL1        0.1452
     31 H           1.0937    1.0874    1.7667 H       1  UNL1        0.1437
     32 H           1.0791   -0.6944    1.7685 H       1  UNL1        0.1437
     33 H          -0.1261   -2.1491   -0.7427 H       1  UNL1        0.0658
     34 H          -1.4857   -3.7364   -0.8541 H       1  UNL1        0.0660
     35 H          -0.7372   -3.7526    0.7723 H       1  UNL1        0.0660
     36 H          -2.2880   -4.6390    0.4456 H       1  UNL1        0.0660
     37 H          -5.5687    0.5657    0.9907 H       1  UNL1        0.0660
     38 H          -4.8527   -0.3557   -0.3700 H       1  UNL1        0.0660
     39 H          -5.5294   -1.2160    1.0418 H       1  UNL1        0.0660
@<TRIPOS>BOND
     1     1     2    1
     2     2     3    1
     3     3     4   ar
     4     4     5   ar
     5     5     6    1
     6     6     7    1
     7     7     8   ar
     8     8     9   ar
     9     9    10   ar
    10    10    11    1
    11    10    12   ar
    12    12    13   ar
    13    13    14    1
    14     5    15   ar
    15    15    16   ar
    16    16    17    1
    17    17    18    1
    18    16    19   ar
    19    19    20    1
    20    20    21    1
    21    19     3   ar
    22    13     7   ar
    23     1    22    1
    24     1    23    1
    25     1    24    1
    26     4    25    1
    27     6    26    1
    28     6    27    1
    29     8    28    1
    30    11    29    1
    31    11    30    1
    32    14    31    1
    33    14    32    1
    34    15    33    1
    35    18    34    1
    36    18    35    1
    37    18    36    1
    38    21    37    1
    39    21    38    1
    40    21    39    1
