
     RDKit          3D

 39 40  0  0  0  0  0  0  0  0999 V2000
   -2.1912    3.4680    0.4212 C   0  0  0  0  0  0  0  0  0  0  0  0
   -2.6362    2.1646    0.7095 O   0  0  0  0  0  0  0  0  0  0  0  0
   -1.9487    1.0255    0.3112 C   0  0  0  0  0  0  0  0  0  0  0  0
   -0.7710    1.0843   -0.4010 C   0  0  0  0  0  0  0  0  0  0  0  0
   -0.0818   -0.0386   -0.8007 C   0  0  0  0  0  0  0  0  0  0  0  0
    1.1660    0.0800   -1.5722 C   0  0  0  0  0  0  0  0  0  0  0  0
    2.4059    0.1607   -0.8210 C   0  0  0  0  0  0  0  0  0  0  0  0
    3.5813    0.1900   -1.5669 C   0  0  0  0  0  0  0  0  0  0  0  0
    4.7869    0.2593   -1.0312 N   0  0  0  0  0  0  0  0  0  0  0  0
    4.9331    0.3059    0.2963 C   0  0  0  0  0  0  0  0  0  0  0  0
    6.2455    0.3797    0.8298 N   0  0  0  0  0  0  0  0  0  0  0  0
    3.8306    0.2801    1.0522 N   0  0  0  0  0  0  0  0  0  0  0  0
    2.5724    0.2091    0.5365 C   0  0  0  0  0  0  0  0  0  0  0  0
    1.4898    0.1908    1.4298 N   0  0  0  0  0  0  0  0  0  0  0  0
   -0.6343   -1.2538   -0.4489 C   0  0  0  0  0  0  0  0  0  0  0  0
   -1.8221   -1.3322    0.2696 C   0  0  0  0  0  0  0  0  0  0  0  0
   -2.3918   -2.5452    0.6318 O   0  0  0  0  0  0  0  0  0  0  0  0
   -1.7130   -3.7220    0.2391 C   0  0  0  0  0  0  0  0  0  0  0  0
   -2.4871   -0.1924    0.6545 C   0  0  0  0  0  0  0  0  0  0  0  0
   -3.6902   -0.2660    1.3822 O   0  0  0  0  0  0  0  0  0  0  0  0
   -4.9448   -0.3198    0.7268 C   0  0  0  0  0  0  0  0  0  0  0  0
   -1.1073    3.5970    0.5418 H   0  0  0  0  0  0  0  0  0  0  0  0
   -2.7690    4.1905    1.0334 H   0  0  0  0  0  0  0  0  0  0  0  0
   -2.4207    3.6846   -0.6468 H   0  0  0  0  0  0  0  0  0  0  0  0
   -0.3965    2.0663   -0.6417 H   0  0  0  0  0  0  0  0  0  0  0  0
    1.2816   -0.7492   -2.3145 H   0  0  0  0  0  0  0  0  0  0  0  0
    1.1330    1.0085   -2.2290 H   0  0  0  0  0  0  0  0  0  0  0  0
    3.5309    0.1547   -2.6618 H   0  0  0  0  0  0  0  0  0  0  0  0
    7.0390    0.7464    0.2661 H   0  0  0  0  0  0  0  0  0  0  0  0
    6.4248    0.0632    1.8013 H   0  0  0  0  0  0  0  0  0  0  0  0
    1.0937    1.0874    1.7667 H   0  0  0  0  0  0  0  0  0  0  0  0
    1.0791   -0.6944    1.7685 H   0  0  0  0  0  0  0  0  0  0  0  0
   -0.1261   -2.1491   -0.7427 H   0  0  0  0  0  0  0  0  0  0  0  0
   -1.4857   -3.7364   -0.8541 H   0  0  0  0  0  0  0  0  0  0  0  0
   -0.7372   -3.7526    0.7723 H   0  0  0  0  0  0  0  0  0  0  0  0
   -2.2880   -4.6390    0.4456 H   0  0  0  0  0  0  0  0  0  0  0  0
   -5.5687    0.5657    0.9907 H   0  0  0  0  0  0  0  0  0  0  0  0
   -4.8527   -0.3557   -0.3700 H   0  0  0  0  0  0  0  0  0  0  0  0
   -5.5294   -1.2160    1.0418 H   0  0  0  0  0  0  0  0  0  0  0  0
  1  2  1  0
  2  3  1  0
  3  4  2  0
  4  5  1  0
  5  6  1  0
  6  7  1  0
  7  8  2  0
  8  9  1  0
  9 10  2  0
 10 11  1  0
 10 12  1  0
 12 13  2  0
 13 14  1  0
  5 15  2  0
 15 16  1  0
 16 17  1  0
 17 18  1  0
 16 19  2  0
 19 20  1  0
 20 21  1  0
 19  3  1  0
 13  7  1  0
  1 22  1  0
  1 23  1  0
  1 24  1  0
  4 25  1  0
  6 26  1  0
  6 27  1  0
  8 28  1  0
 11 29  1  0
 11 30  1  0
 14 31  1  0
 14 32  1  0
 15 33  1  0
 18 34  1  0
 18 35  1  0
 18 36  1  0
 21 37  1  0
 21 38  1  0
 21 39  1  0
M  END
$$$$
