
     RDKit          3D

 35 36  0  0  0  0  0  0  0  0999 V2000
   -4.5600    2.6876    0.4503 C   0  0  0  0  0  0  0  0  0  0  0  0
   -4.0083    1.5463   -0.1212 O   0  0  0  0  0  0  0  0  0  0  0  0
   -2.8014    0.9681    0.2456 C   0  0  0  0  0  0  0  0  0  0  0  0
   -1.9908    1.4681    1.2404 C   0  0  0  0  0  0  0  0  0  0  0  0
   -0.7996    0.8575    1.5687 C   0  0  0  0  0  0  0  0  0  0  0  0
   -0.4031   -0.2711    0.8981 C   0  0  0  0  0  0  0  0  0  0  0  0
    0.8480   -0.9520    1.2095 C   0  0  0  0  0  0  0  0  0  0  0  0
    2.0067   -0.4665    0.4289 C   0  0  0  0  0  0  0  0  0  0  0  0
    1.9539    0.5223   -0.5035 C   0  0  0  0  0  0  0  0  0  0  0  0
    3.0979    0.8508   -1.1298 N   0  0  0  0  0  0  0  0  0  0  0  0
    4.2845    0.2706   -0.8975 C   0  0  0  0  0  0  0  0  0  0  0  0
    5.4696    0.6762   -1.6087 N   0  0  0  0  0  0  0  0  0  0  0  0
    4.3469   -0.7069    0.0215 N   0  0  0  0  0  0  0  0  0  0  0  0
    3.2264   -1.0627    0.6675 C   0  0  0  0  0  0  0  0  0  0  0  0
    3.3480   -2.1148    1.6419 N   0  0  0  0  0  0  0  0  0  0  0  0
   -1.2190   -0.7590   -0.0904 C   0  0  0  0  0  0  0  0  0  0  0  0
   -2.4195   -0.1653   -0.4395 C   0  0  0  0  0  0  0  0  0  0  0  0
   -3.2245   -0.7017   -1.4611 O   0  0  0  0  0  0  0  0  0  0  0  0
   -2.8472   -1.8509   -2.1625 C   0  0  0  0  0  0  0  0  0  0  0  0
   -4.3115    2.7439    1.5118 H   0  0  0  0  0  0  0  0  0  0  0  0
   -4.2534    3.5921   -0.1135 H   0  0  0  0  0  0  0  0  0  0  0  0
   -5.6809    2.5770    0.3950 H   0  0  0  0  0  0  0  0  0  0  0  0
   -2.3217    2.3740    1.7697 H   0  0  0  0  0  0  0  0  0  0  0  0
   -0.2067    1.3056    2.3658 H   0  0  0  0  0  0  0  0  0  0  0  0
    1.1217   -0.9188    2.2997 H   0  0  0  0  0  0  0  0  0  0  0  0
    0.7580   -2.0532    0.9842 H   0  0  0  0  0  0  0  0  0  0  0  0
    1.0090    0.9959   -0.6996 H   0  0  0  0  0  0  0  0  0  0  0  0
    6.1863    1.2941   -1.1476 H   0  0  0  0  0  0  0  0  0  0  0  0
    5.6645    0.3863   -2.5783 H   0  0  0  0  0  0  0  0  0  0  0  0
    2.7692   -2.9655    1.5886 H   0  0  0  0  0  0  0  0  0  0  0  0
    4.0647   -1.9364    2.3925 H   0  0  0  0  0  0  0  0  0  0  0  0
   -0.9343   -1.6644   -0.6520 H   0  0  0  0  0  0  0  0  0  0  0  0
   -3.6943   -2.1935   -2.7839 H   0  0  0  0  0  0  0  0  0  0  0  0
   -2.5327   -2.6550   -1.4420 H   0  0  0  0  0  0  0  0  0  0  0  0
   -1.9462   -1.6784   -2.8027 H   0  0  0  0  0  0  0  0  0  0  0  0
  1  2  1  0
  2  3  1  0
  3  4  2  0
  4  5  1  0
  5  6  2  0
  6  7  1  0
  7  8  1  0
  8  9  2  0
  9 10  1  0
 10 11  2  0
 11 12  1  0
 11 13  1  0
 13 14  2  0
 14 15  1  0
  6 16  1  0
 16 17  2  0
 17 18  1  0
 18 19  1  0
 17  3  1  0
 14  8  1  0
  1 20  1  0
  1 21  1  0
  1 22  1  0
  4 23  1  0
  5 24  1  0
  7 25  1  0
  7 26  1  0
  9 27  1  0
 12 28  1  0
 12 29  1  0
 15 30  1  0
 15 31  1  0
 16 32  1  0
 19 33  1  0
 19 34  1  0
 19 35  1  0
M  END
$$$$
