@<TRIPOS>MOLECULE
*****
 35 36 0 0 0
SMALL
GASTEIGER

@<TRIPOS>ATOM
      1 C          -4.5600    2.6876    0.4503 C.3     1  UNL1        0.0790
      2 O          -4.0083    1.5463   -0.1212 O.3     1  UNL1       -0.4915
      3 C          -2.8014    0.9681    0.2456 C.ar    1  UNL1        0.1615
      4 C          -1.9908    1.4681    1.2404 C.ar    1  UNL1       -0.0160
      5 C          -0.7996    0.8575    1.5687 C.ar    1  UNL1       -0.0546
      6 C          -0.4031   -0.2711    0.8981 C.ar    1  UNL1       -0.0392
      7 C           0.8480   -0.9520    1.2095 C.3     1  UNL1        0.0024
      8 C           2.0067   -0.4665    0.4289 C.ar    1  UNL1        0.0146
      9 C           1.9539    0.5223   -0.5035 C.ar    1  UNL1        0.0379
     10 N           3.0979    0.8508   -1.1298 N.ar    1  UNL1       -0.2227
     11 C           4.2845    0.2706   -0.8975 C.ar    1  UNL1        0.2142
     12 N           5.4696    0.6762   -1.6087 N.pl3   1  UNL1       -0.3274
     13 N           4.3469   -0.7069    0.0215 N.ar    1  UNL1       -0.1999
     14 C           3.2264   -1.0627    0.6675 C.ar    1  UNL1        0.1247
     15 N           3.3480   -2.1148    1.6419 N.pl3   1  UNL1       -0.3428
     16 C          -1.2190   -0.7590   -0.0904 C.ar    1  UNL1       -0.0128
     17 C          -2.4195   -0.1653   -0.4395 C.ar    1  UNL1        0.1617
     18 O          -3.2245   -0.7017   -1.4611 O.3     1  UNL1       -0.4914
     19 C          -2.8472   -1.8509   -2.1625 C.3     1  UNL1        0.0790
     20 H          -4.3115    2.7439    1.5118 H       1  UNL1        0.0660
     21 H          -4.2534    3.5921   -0.1135 H       1  UNL1        0.0660
     22 H          -5.6809    2.5770    0.3950 H       1  UNL1        0.0660
     23 H          -2.3217    2.3740    1.7697 H       1  UNL1        0.0655
     24 H          -0.2067    1.3056    2.3658 H       1  UNL1        0.0622
     25 H           1.1217   -0.9188    2.2997 H       1  UNL1        0.0363
     26 H           0.7580   -2.0532    0.9842 H       1  UNL1        0.0363
     27 H           1.0090    0.9959   -0.6996 H       1  UNL1        0.0834
     28 H           6.1863    1.2941   -1.1476 H       1  UNL1        0.1452
     29 H           5.6645    0.3863   -2.5783 H       1  UNL1        0.1452
     30 H           2.7692   -2.9655    1.5886 H       1  UNL1        0.1437
     31 H           4.0647   -1.9364    2.3925 H       1  UNL1        0.1437
     32 H          -0.9343   -1.6644   -0.6520 H       1  UNL1        0.0658
     33 H          -3.6943   -2.1935   -2.7839 H       1  UNL1        0.0660
     34 H          -2.5327   -2.6550   -1.4420 H       1  UNL1        0.0660
     35 H          -1.9462   -1.6784   -2.8027 H       1  UNL1        0.0660
@<TRIPOS>BOND
     1     1     2    1
     2     2     3    1
     3     3     4   ar
     4     4     5   ar
     5     5     6   ar
     6     6     7    1
     7     7     8    1
     8     8     9   ar
     9     9    10   ar
    10    10    11   ar
    11    11    12    1
    12    11    13   ar
    13    13    14   ar
    14    14    15    1
    15     6    16   ar
    16    16    17   ar
    17    17    18    1
    18    18    19    1
    19    17     3   ar
    20    14     8   ar
    21     1    20    1
    22     1    21    1
    23     1    22    1
    24     4    23    1
    25     5    24    1
    26     7    25    1
    27     7    26    1
    28     9    27    1
    29    12    28    1
    30    12    29    1
    31    15    30    1
    32    15    31    1
    33    16    32    1
    34    19    33    1
    35    19    34    1
    36    19    35    1
