@<TRIPOS>MOLECULE
*****
 45 45 0 0 0
SMALL
GASTEIGER

@<TRIPOS>ATOM
      1 C           5.0733    0.3774    0.5815 C.3     1  UNL1       -0.0653
      2 C           4.2334   -0.5882    1.3781 C.3     1  UNL1       -0.0559
      3 C           3.4011   -1.3940    0.3750 C.3     1  UNL1       -0.0533
      4 C           2.5696   -0.3589   -0.3642 C.3     1  UNL1       -0.0530
      5 C           1.6918   -1.0446   -1.3742 C.3     1  UNL1       -0.0519
      6 C           0.8544   -0.0857   -2.1327 C.3     1  UNL1       -0.0402
      7 C          -0.0395    0.8142   -1.3767 C.3     1  UNL1       -0.0006
      8 N          -1.0503    0.3638   -0.5554 N.3     1  UNL1       -0.2923
      9 C          -0.8708   -0.2427    0.6798 C.3     1  UNL1        0.0279
     10 C          -2.1310   -0.9362    1.1933 C.3     1  UNL1        0.0962
     11 O          -1.8430   -2.1649    1.7770 O.3     1  UNL1       -0.3879
     12 C          -3.0654   -1.0785    0.0168 C.3     1  UNL1        0.1095
     13 O          -4.2113   -1.7935    0.3504 O.3     1  UNL1       -0.3866
     14 C          -3.4878    0.3561   -0.3452 C.3     1  UNL1        0.1011
     15 O          -4.4199    0.3244   -1.3625 O.3     1  UNL1       -0.3875
     16 C          -2.2511    1.1646   -0.6994 C.3     1  UNL1        0.0621
     17 C          -2.1888    2.4514    0.0576 C.3     1  UNL1        0.0622
     18 O          -2.0162    2.2857    1.4199 O.3     1  UNL1       -0.3934
     19 H           4.5693    1.3505    0.4185 H       1  UNL1        0.0230
     20 H           5.3227   -0.0808   -0.3781 H       1  UNL1        0.0230
     21 H           6.0012    0.5764    1.1432 H       1  UNL1        0.0230
     22 H           3.5129   -0.0740    2.0465 H       1  UNL1        0.0263
     23 H           4.8987   -1.2806    1.9171 H       1  UNL1        0.0263
     24 H           2.7613   -2.1295    0.8791 H       1  UNL1        0.0265
     25 H           4.1042   -1.8790   -0.3333 H       1  UNL1        0.0265
     26 H           3.2545    0.3183   -0.9264 H       1  UNL1        0.0265
     27 H           1.9709    0.2100    0.3719 H       1  UNL1        0.0265
     28 H           1.1262   -1.8478   -0.9082 H       1  UNL1        0.0266
     29 H           2.3807   -1.5793   -2.1254 H       1  UNL1        0.0266
     30 H           0.2785   -0.6719   -2.9337 H       1  UNL1        0.0278
     31 H           1.5621    0.5313   -2.7860 H       1  UNL1        0.0278
     32 H          -0.5255    1.5118   -2.1585 H       1  UNL1        0.0427
     33 H           0.6611    1.5641   -0.8659 H       1  UNL1        0.0427
     34 H          -0.0991   -1.0143    0.6760 H       1  UNL1        0.0453
     35 H          -0.5141    0.4796    1.4932 H       1  UNL1        0.0453
     36 H          -2.6555   -0.3356    1.9570 H       1  UNL1        0.0633
     37 H          -2.6158   -2.7929    1.6996 H       1  UNL1        0.2099
     38 H          -2.5956   -1.5378   -0.8610 H       1  UNL1        0.0646
     39 H          -5.0288   -1.3425    0.0437 H       1  UNL1        0.2100
     40 H          -3.9828    0.7552    0.5655 H       1  UNL1        0.0636
     41 H          -4.9369    1.1500   -1.4502 H       1  UNL1        0.2100
     42 H          -2.3346    1.4101   -1.7747 H       1  UNL1        0.0511
     43 H          -1.3650    3.1176   -0.2882 H       1  UNL1        0.0573
     44 H          -3.1270    3.0220   -0.1023 H       1  UNL1        0.0573
     45 H          -2.8719    2.1189    1.8687 H       1  UNL1        0.2095
@<TRIPOS>BOND
     1     1     2    1
     2     2     3    1
     3     3     4    1
     4     4     5    1
     5     5     6    1
     6     6     7    1
     7     7     8    1
     8     8     9    1
     9     9    10    1
    10    10    11    1
    11    10    12    1
    12    12    13    1
    13    12    14    1
    14    14    15    1
    15    14    16    1
    16    16    17    1
    17    17    18    1
    18    16     8    1
    19     1    19    1
    20     1    20    1
    21     1    21    1
    22     2    22    1
    23     2    23    1
    24     3    24    1
    25     3    25    1
    26     4    26    1
    27     4    27    1
    28     5    28    1
    29     5    29    1
    30     6    30    1
    31     6    31    1
    32     7    32    1
    33     7    33    1
    34     9    34    1
    35     9    35    1
    36    10    36    1
    37    11    37    1
    38    12    38    1
    39    13    39    1
    40    14    40    1
    41    15    41    1
    42    16    42    1
    43    17    43    1
    44    17    44    1
    45    18    45    1
