@<TRIPOS>MOLECULE
*****
 72 77 0 0 0
SMALL
GASTEIGER

@<TRIPOS>ATOM
      1 C         -10.4296   -1.1792    2.3139 C.3     1  UNL1        0.0789
      2 O         -10.5275   -1.9508    1.1271 O.3     1  UNL1       -0.4933
      3 C          -9.5011   -1.8409    0.1954 C.ar    1  UNL1        0.1412
      4 C          -8.4124   -1.0008    0.4178 C.ar    1  UNL1       -0.0104
      5 C          -7.4018   -0.9083   -0.5247 C.ar    1  UNL1       -0.0143
      6 C          -6.2632   -0.0224   -0.2856 C.ar    1  UNL1       -0.0160
      7 C          -6.3738    1.1663    0.4269 C.ar    1  UNL1       -0.0532
      8 C          -5.2688    1.9757    0.6319 C.ar    1  UNL1       -0.0473
      9 C          -4.0301    1.6523    0.1514 C.ar    1  UNL1        0.0581
     10 C          -3.8961    0.4775   -0.5580 C.ar    1  UNL1        0.0442
     11 C          -5.0006   -0.3306   -0.7626 C.ar    1  UNL1       -0.0321
     12 N          -2.7008   -0.0308   -1.1294 N.pl3   1  UNL1       -0.3124
     13 C          -1.4471    0.6055   -1.4013 C.ar    1  UNL1        0.0529
     14 C          -0.6657   -0.1260   -2.2831 C.ar    1  UNL1       -0.0385
     15 C           0.5800    0.3283   -2.6674 C.ar    1  UNL1       -0.0562
     16 C           1.0703    1.5218   -2.1794 C.ar    1  UNL1       -0.0367
     17 C           2.4114    1.9560   -2.6223 C.3     1  UNL1        0.0495
     18 C           3.4886    1.5629   -1.7102 C.2     1  UNL1        0.2215
     19 O           3.4796    1.9898   -0.5074 O.2     1  UNL1       -0.2751
     20 N           4.5737    0.7207   -2.0626 N.am    1  UNL1       -0.2852
     21 C           5.6142    0.3541   -1.1601 C.ar    1  UNL1        0.0335
     22 C           5.4533   -0.7504   -0.3434 C.ar    1  UNL1       -0.0387
     23 C           6.4675   -1.0985    0.5219 C.ar    1  UNL1       -0.0389
     24 C           7.6642   -0.3848    0.6178 C.ar    1  UNL1        0.0299
     25 N           8.6744   -0.7797    1.5469 N.pl3   1  UNL1       -0.3255
     26 C           8.3268   -1.6543    2.6793 C.3     1  UNL1        0.0357
     27 C           8.9692   -0.9857    3.9060 C.3     1  UNL1        0.0634
     28 O          10.3368   -1.0675    3.7063 O.3     1  UNL1       -0.3767
     29 C          10.7322   -0.1419    2.7486 C.3     1  UNL1        0.0634
     30 C          10.0353   -0.3688    1.4087 C.3     1  UNL1        0.0357
     31 C           7.7956    0.7089   -0.2074 C.ar    1  UNL1       -0.0389
     32 C           6.7838    1.0837   -1.0932 C.ar    1  UNL1       -0.0387
     33 C           0.2817    2.2310   -1.3078 C.ar    1  UNL1       -0.0350
     34 C          -0.9663    1.8097   -0.9009 C.ar    1  UNL1        0.0553
     35 N          -1.6151    2.6964    0.0149 N.am    1  UNL1       -0.2799
     36 C          -2.9769    2.6311    0.4605 C.2     1  UNL1        0.2501
     37 O          -3.3636    3.5306    1.2336 O.2     1  UNL1       -0.2698
     38 C          -7.5264   -1.6624   -1.6497 C.ar    1  UNL1       -0.0521
     39 C          -8.6078   -2.5113   -1.8949 C.ar    1  UNL1       -0.0369
     40 C          -9.5972   -2.6012   -0.9715 C.ar    1  UNL1        0.0669
     41 N         -10.7243   -3.4372   -1.1473 N.pl3   1  UNL1       -0.3551
     42 H         -10.3391   -0.1133    2.0676 H       1  UNL1        0.0660
     43 H         -11.3269   -1.4217    2.9306 H       1  UNL1        0.0660
     44 H          -9.5459   -1.4900    2.9246 H       1  UNL1        0.0660
     45 H          -8.4045   -0.4427    1.3431 H       1  UNL1        0.0661
     46 H          -7.3581    1.4086    0.7999 H       1  UNL1        0.0624
     47 H          -5.3830    2.9015    1.1938 H       1  UNL1        0.0626
     48 H          -4.8612   -1.2447   -1.3228 H       1  UNL1        0.0642
     49 H          -2.7311   -1.0343   -1.3985 H       1  UNL1        0.1522
     50 H          -1.0641   -1.0607   -2.6583 H       1  UNL1        0.0637
     51 H           1.1345   -0.3086   -3.3669 H       1  UNL1        0.0621
     52 H           2.6309    1.5050   -3.6225 H       1  UNL1        0.0407
     53 H           2.3769    3.0545   -2.8207 H       1  UNL1        0.0407
     54 H           4.6003    0.3540   -3.0424 H       1  UNL1        0.1548
     55 H           4.5248   -1.3426   -0.3849 H       1  UNL1        0.0637
     56 H           6.3480   -1.9548    1.1511 H       1  UNL1        0.0637
     57 H           7.2561   -1.6664    2.9004 H       1  UNL1        0.0486
     58 H           8.7225   -2.6706    2.5534 H       1  UNL1        0.0486
     59 H           8.6746   -1.4515    4.8442 H       1  UNL1        0.0575
     60 H           8.6657    0.1005    3.8422 H       1  UNL1        0.0575
     61 H          11.8281   -0.2542    2.6223 H       1  UNL1        0.0575
     62 H          10.5486    0.9106    3.0451 H       1  UNL1        0.0575
     63 H          10.6610   -1.1379    0.8886 H       1  UNL1        0.0486
     64 H          10.1817    0.5626    0.8348 H       1  UNL1        0.0486
     65 H           8.6823    1.3186   -0.2010 H       1  UNL1        0.0637
     66 H           6.8724    1.9361   -1.7448 H       1  UNL1        0.0637
     67 H           0.6360    3.1765   -0.9028 H       1  UNL1        0.0639
     68 H          -1.0176    3.4691    0.3908 H       1  UNL1        0.1552
     69 H          -6.7742   -1.6369   -2.4238 H       1  UNL1        0.0624
     70 H          -8.6593   -3.0969   -2.8170 H       1  UNL1        0.0637
     71 H         -11.1884   -3.8186   -0.2978 H       1  UNL1        0.1424
     72 H         -11.1334   -3.7065   -2.0671 H       1  UNL1        0.1424
@<TRIPOS>BOND
     1     1     2    1
     2     2     3    1
     3     3     4   ar
     4     4     5   ar
     5     5     6    1
     6     6     7   ar
     7     7     8   ar
     8     8     9   ar
     9     9    10   ar
    10    10    11   ar
    11    10    12    1
    12    12    13    1
    13    13    14   ar
    14    14    15   ar
    15    15    16   ar
    16    16    17    1
    17    17    18    1
    18    18    19    2
    19    18    20   am
    20    20    21    1
    21    21    22   ar
    22    22    23   ar
    23    23    24   ar
    24    24    25    1
    25    25    26    1
    26    26    27    1
    27    27    28    1
    28    28    29    1
    29    29    30    1
    30    24    31   ar
    31    31    32   ar
    32    16    33   ar
    33    33    34   ar
    34    34    35    1
    35    35    36   am
    36    36    37    2
    37     5    38   ar
    38    38    39   ar
    39    39    40   ar
    40    40    41    1
    41    40     3   ar
    42    11     6   ar
    43    34    13   ar
    44    36     9    1
    45    32    21   ar
    46    30    25    1
    47     1    42    1
    48     1    43    1
    49     1    44    1
    50     4    45    1
    51     7    46    1
    52     8    47    1
    53    11    48    1
    54    12    49    1
    55    14    50    1
    56    15    51    1
    57    17    52    1
    58    17    53    1
    59    20    54    1
    60    22    55    1
    61    23    56    1
    62    26    57    1
    63    26    58    1
    64    27    59    1
    65    27    60    1
    66    29    61    1
    67    29    62    1
    68    30    63    1
    69    30    64    1
    70    31    65    1
    71    32    66    1
    72    33    67    1
    73    35    68    1
    74    38    69    1
    75    39    70    1
    76    41    71    1
    77    41    72    1
