@<TRIPOS>MOLECULE
*****
 58 63 0 0 0
SMALL
GASTEIGER

@<TRIPOS>ATOM
      1 C           5.9296    0.5243    1.7214 C.3     1  UNL1        0.0805
      2 O           4.9399    0.1875    0.7850 O.3     1  UNL1       -0.4782
      3 C           4.8926   -1.1321    0.3189 C.ar    1  UNL1        0.2408
      4 N           5.7647   -2.0605    0.7480 N.ar    1  UNL1       -0.2195
      5 C           5.7262   -3.3269    0.3065 C.ar    1  UNL1        0.0315
      6 C           4.7503   -3.6631   -0.6181 C.ar    1  UNL1       -0.0413
      7 C           3.8507   -2.7294   -1.0686 C.ar    1  UNL1       -0.0296
      8 C           3.8909   -1.4159   -0.6105 C.ar    1  UNL1        0.1275
      9 N           2.9817   -0.4349   -1.0533 N.ar    1  UNL1       -0.2219
     10 N           3.2590    0.6293   -1.7603 N.ar    1  UNL1       -0.1704
     11 C           2.1082    1.3316   -1.9868 C.ar    1  UNL1        0.0664
     12 C           2.0087    2.5864   -2.7442 C.3     1  UNL1       -0.0202
     13 C           1.0547    0.6445   -1.3726 C.ar    1  UNL1        0.0310
     14 C           1.6633   -0.4440   -0.8109 C.ar    1  UNL1        0.1353
     15 C           0.5598   -1.1925   -0.1700 C.2     1  UNL1        0.2705
     16 O           0.7669   -2.2852    0.4642 O.2     1  UNL1       -0.2679
     17 N          -0.6750   -0.5527   -0.3567 N.am    1  UNL1       -0.2530
     18 C          -1.9541   -0.9860    0.0870 C.ar    1  UNL1        0.0545
     19 C          -2.1544   -2.1035    0.8217 C.ar    1  UNL1       -0.0324
     20 C          -3.4341   -2.4794    1.2189 C.ar    1  UNL1       -0.0041
     21 C          -3.5765   -3.7141    2.0206 C.3     1  UNL1       -0.0361
     22 C          -4.4893   -1.6881    0.8468 C.ar    1  UNL1        0.1641
     23 N          -5.8056   -1.8041    1.0836 N.ar    1  UNL1       -0.1292
     24 N          -6.4370   -0.7897    0.5173 N.ar    1  UNL1       -0.1340
     25 C          -5.5456    0.0076   -0.0997 C.ar    1  UNL1        0.1347
     26 C          -5.7783    1.2432   -0.8557 C.3     1  UNL1       -0.0041
     27 N          -4.3328   -0.5745    0.1199 N.ar    1  UNL1       -0.2846
     28 C          -3.0863   -0.2352   -0.2500 C.ar    1  UNL1        0.0344
     29 C          -0.4073    0.6748   -1.1091 C.3     1  UNL1        0.0881
     30 C          -0.7143    1.8748   -0.2782 C.ar    1  UNL1        0.0131
     31 C          -1.3153    2.9607   -0.8712 C.ar    1  UNL1       -0.0523
     32 C          -1.5832    4.0717   -0.0985 C.ar    1  UNL1       -0.0429
     33 C          -1.2718    4.1395    1.2524 C.ar    1  UNL1        0.0437
     34 CL         -1.6250    5.5651    2.2072 Cl      1  UNL1       -0.0835
     35 C          -0.6685    3.0456    1.8413 C.ar    1  UNL1       -0.0078
     36 C          -0.4003    1.9323    1.0658 C.ar    1  UNL1        0.1300
     37 F           0.1888    0.8768    1.6621 F       1  UNL1       -0.2051
     38 H           5.4671    1.2512    2.4376 H       1  UNL1        0.0660
     39 H           6.3205   -0.3599    2.2450 H       1  UNL1        0.0660
     40 H           6.7626    1.0882    1.2149 H       1  UNL1        0.0660
     41 H           6.4394   -4.0790    0.6600 H       1  UNL1        0.0831
     42 H           4.7039   -4.6981   -0.9913 H       1  UNL1        0.0633
     43 H           3.0797   -2.9797   -1.7940 H       1  UNL1        0.0641
     44 H           1.6435    2.3595   -3.7802 H       1  UNL1        0.0293
     45 H           1.3555    3.3239   -2.2358 H       1  UNL1        0.0293
     46 H           3.0116    3.0462   -2.8561 H       1  UNL1        0.0293
     47 H          -1.3244   -2.7385    1.1234 H       1  UNL1        0.0640
     48 H          -2.7279   -4.3894    1.7959 H       1  UNL1        0.0279
     49 H          -3.5800   -3.4182    3.0933 H       1  UNL1        0.0279
     50 H          -4.5420   -4.2182    1.7559 H       1  UNL1        0.0279
     51 H          -5.7727    2.1511   -0.2068 H       1  UNL1        0.0308
     52 H          -5.0649    1.3547   -1.7095 H       1  UNL1        0.0308
     53 H          -6.7990    1.2086   -1.3044 H       1  UNL1        0.0308
     54 H          -2.9842    0.6482   -0.8297 H       1  UNL1        0.0833
     55 H          -0.9959    0.7339   -2.0250 H       1  UNL1        0.0607
     56 H          -1.5944    3.0004   -1.9158 H       1  UNL1        0.0622
     57 H          -2.0546    4.9429   -0.5314 H       1  UNL1        0.0632
     58 H          -0.4252    3.0885    2.8797 H       1  UNL1        0.0661
@<TRIPOS>BOND
     1     1     2    1
     2     2     3    1
     3     3     4   ar
     4     4     5   ar
     5     5     6   ar
     6     6     7   ar
     7     7     8   ar
     8     8     9    1
     9     9    10   ar
    10    10    11   ar
    11    11    12    1
    12    11    13   ar
    13    13    14   ar
    14    14    15    1
    15    15    16    2
    16    15    17   am
    17    17    18    1
    18    18    19   ar
    19    19    20   ar
    20    20    21    1
    21    20    22   ar
    22    22    23   ar
    23    23    24   ar
    24    24    25   ar
    25    25    26    1
    26    25    27   ar
    27    27    28   ar
    28    17    29    1
    29    29    30    1
    30    30    31   ar
    31    31    32   ar
    32    32    33   ar
    33    33    34    1
    34    33    35   ar
    35    35    36   ar
    36    36    37    1
    37     8     3   ar
    38    14     9   ar
    39    28    18   ar
    40    36    30   ar
    41    29    13    1
    42    27    22   ar
    43     1    38    1
    44     1    39    1
    45     1    40    1
    46     5    41    1
    47     6    42    1
    48     7    43    1
    49    12    44    1
    50    12    45    1
    51    12    46    1
    52    19    47    1
    53    21    48    1
    54    21    49    1
    55    21    50    1
    56    26    51    1
    57    26    52    1
    58    26    53    1
    59    28    54    1
    60    29    55    1
    61    31    56    1
    62    32    57    1
    63    35    58    1
