@<TRIPOS>MOLECULE
*****
 52 52 0 0 0
SMALL
GASTEIGER

@<TRIPOS>ATOM
      1 CB          0.3979    2.2569    2.2581 C.3     1  THR1        0.0834
      2 CG2        -0.6541    3.3041    1.9692 C.3     1  THR1       -0.0364
      3 OG1         0.2046    1.7765    3.5518 O.3     1  THR1       -0.3895
      4 CA          0.3308    1.1128    1.2733 C.3     1  THR1        0.1543
      5 N           0.5216    1.5346   -0.0797 N.2     1  THR1       -0.2370
      6 C           1.4582    1.1295   -0.8572 C.2     0  UNK0        0.2163
      7 O           1.3184    1.7569   -2.0840 O.2     0  UNK0       -0.4938
      8 C           2.5407    0.1598   -0.5680 C.3     0  UNK0        0.1708
      9 O           2.4627   -0.9678   -1.4670 O.3     0  UNK0       -0.3465
     10 C           3.5902    0.0324   -1.5114 C.3     0  UNK0        0.1905
     11 C           4.8349   -0.7244   -1.3429 C.2     0  UNK0        0.3394
     12 O           5.6445   -0.5843   -2.3218 O.2     0  UNK0       -0.2478
     13 O           5.1341   -1.5206   -0.2450 O.3     0  UNK0       -0.4630
     14 C           6.4164   -2.1630   -0.3076 C.3     0  UNK0        0.0897
     15 C           7.4647   -1.0773   -0.3977 C.3     0  UNK0       -0.0306
     16 C          -1.0013    0.4515    1.4083 C.2     1  THR1        0.2112
     17 O          -1.4086   -0.1179    2.6103 O.2     1  THR1       -0.4941
     18 N          -1.8013    0.3995    0.3982 N.2     2  ILE2       -0.2379
     19 CA         -3.1337   -0.2559    0.5137 C.3     2  ILE2        0.1530
     20 C          -2.7840   -1.7218    0.4124 C.2     2  ILE2        0.3299
     21 O          -1.6954   -2.5161    0.0597 O.3     2  ILE2       -0.4791
     22 OXT        -3.3414   -2.8603    0.6081 O.2     2  ILE2       -0.2486
     23 CB         -3.9761    0.1798   -0.6291 C.3     2  ILE2       -0.0112
     24 CG2        -3.3475   -0.2472   -1.9590 C.3     2  ILE2       -0.0600
     25 CG1        -5.4137   -0.1285   -0.6229 C.3     2  ILE2       -0.0509
     26 CD1        -5.7945   -1.5820   -0.5845 C.3     2  ILE2       -0.0650
     27 HB          1.4052    2.7198    2.2551 H       1  THR1        0.0617
     28 HG21       -0.5603    4.0888    2.7480 H       1  THR1        0.0255
     29 HG22       -1.6613    2.8736    2.0792 H       1  THR1        0.0255
     30 HG23       -0.5134    3.7931    1.0010 H       1  THR1        0.0255
     31 HG1        -0.7483    1.8766    3.8156 H       1  THR1        0.2099
     32 HA          1.0615    0.3486    1.6294 H       1  THR1        0.0669
     33 H           1.0278    2.7206   -2.2103 H       0  UNK0        0.2935
     34 H           2.6976   -0.0748    0.4849 H       0  UNK0        0.0727
     35 H           3.5491    0.6058   -2.4611 H       0  UNK0        0.0745
     36 H           6.5856   -2.8643    0.5137 H       0  UNK0        0.0694
     37 H           6.4300   -2.7176   -1.2614 H       0  UNK0        0.0694
     38 H           8.0670   -1.1521   -1.3295 H       0  UNK0        0.0262
     39 H           8.1459   -1.1224    0.4634 H       0  UNK0        0.0262
     40 H           7.0036   -0.0675   -0.4362 H       0  UNK0        0.0262
     41 H          -2.0598   -0.8887    2.6540 H       1  THR1        0.2935
     42 HA         -3.5810   -0.0986    1.5000 H       2  ILE2        0.0664
     43 H          -1.5396   -2.8392   -0.9022 H       2  ILE2        0.2951
     44 HB         -3.9065    1.3327   -0.6212 H       2  ILE2        0.0324
     45 HG21       -2.4211    0.3083   -2.1466 H       2  ILE2        0.0233
     46 HG22       -3.1949   -1.3501   -1.9073 H       2  ILE2        0.0233
     47 HG23       -4.0750   -0.0664   -2.7661 H       2  ILE2        0.0233
     48 HG11       -5.8508    0.2653   -1.5851 H       2  ILE2        0.0266
     49 HG12       -5.9859    0.4417    0.1679 H       2  ILE2        0.0266
     50 HD11       -5.8441   -1.9042    0.4730 H       2  ILE2        0.0230
     51 HD12       -6.8491   -1.6903   -1.0020 H       2  ILE2        0.0230
     52 HD13       -5.1503   -2.1657   -1.2415 H       2  ILE2        0.0230
@<TRIPOS>BOND
     1     1     2    1
     2     1     3    1
     3     1     4    1
     4     4     5    1
     5     5     6    2
     6     6     7    1
     7     6     8    1
     8     8     9    1
     9     9    10    1
    10    10    11    1
    11    11    12    2
    12    11    13    1
    13    13    14    1
    14    14    15    1
    15     4    16    1
    16    16    17    1
    17    16    18    2
    18    18    19    1
    19    19    20    1
    20    20    21    1
    21    20    22    2
    22    19    23    1
    23    23    24    1
    24    23    25    1
    25    25    26    1
    26    10     8    1
    27     1    27    1
    28     2    28    1
    29     2    29    1
    30     2    30    1
    31     3    31    1
    32     4    32    1
    33     7    33    1
    34     8    34    1
    35    10    35    1
    36    14    36    1
    37    14    37    1
    38    15    38    1
    39    15    39    1
    40    15    40    1
    41    17    41    1
    42    19    42    1
    43    21    43    1
    44    23    44    1
    45    24    45    1
    46    24    46    1
    47    24    47    1
    48    25    48    1
    49    25    49    1
    50    26    50    1
    51    26    51    1
    52    26    52    1
