@<TRIPOS>MOLECULE
*****
 70 74 0 0 0
SMALL
GASTEIGER

@<TRIPOS>ATOM
      1 C          -0.9163    2.2008   -2.2198 C.3     1  UNL1       -0.0421
      2 C          -0.5351    0.7399   -2.1778 C.3     1  UNL1        0.0515
      3 C           0.8634    0.5534   -1.7026 C.ar    1  UNL1       -0.0271
      4 C           1.7745    1.5849   -1.6109 C.ar    1  UNL1       -0.0562
      5 C           3.0703    1.3832   -1.1657 C.ar    1  UNL1       -0.0537
      6 C           3.5004    0.1263   -0.7936 C.ar    1  UNL1       -0.0177
      7 C           4.8580   -0.0979   -0.3251 C.ar    1  UNL1       -0.0114
      8 C           5.9350    0.6358   -0.7773 C.ar    1  UNL1       -0.0376
      9 C           7.2235    0.4238   -0.3339 C.ar    1  UNL1        0.0088
     10 N           7.4662   -0.5345    0.5792 N.ar    1  UNL1       -0.3121
     11 C           8.8035   -0.7553    1.0394 C.3     1  UNL1        0.0375
     12 C           9.6706    0.4337    1.4322 C.3     1  UNL1       -0.0301
     13 C           9.1691   -0.4728    2.4857 C.3     1  UNL1       -0.0301
     14 C           6.4630   -1.2739    1.0510 C.ar    1  UNL1        0.2521
     15 O           6.7353   -2.1642    1.9085 O.2     1  UNL1       -0.2677
     16 C           5.1609   -1.0798    0.6211 C.ar    1  UNL1        0.0107
     17 C           2.5759   -0.9088   -0.8889 C.ar    1  UNL1       -0.0537
     18 C           1.2841   -0.7069   -1.3328 C.ar    1  UNL1       -0.0562
     19 N          -1.4876    0.0517   -1.3405 N.am    1  UNL1       -0.2605
     20 C          -1.5408    0.3646    0.0528 C.3     1  UNL1        0.0220
     21 C          -2.6857   -0.2961    0.7860 C.3     1  UNL1        0.0033
     22 C          -3.9001   -0.4738   -0.0319 C.3     1  UNL1        0.1194
     23 C          -4.8957   -1.3623    0.6470 C.3     1  UNL1       -0.0098
     24 C          -4.3102   -2.7381    0.8571 C.3     1  UNL1       -0.0374
     25 C          -5.2452   -3.7613    1.5585 C.3     1  UNL1       -0.0498
     26 C          -4.9886   -3.8770    0.1141 C.3     1  UNL1       -0.0498
     27 C          -4.4880    0.7853   -0.5814 C.3     1  UNL1        0.0157
     28 C          -4.9263    1.8190    0.3755 C.3     1  UNL1        0.0642
     29 C          -5.4740    2.9815   -0.4756 C.3     1  UNL1       -0.0362
     30 C          -6.0417    1.4346    1.3016 C.3     1  UNL1       -0.0362
     31 O          -3.9164    2.3717    1.1387 O.3     1  UNL1       -0.3890
     32 O          -3.5103   -1.2311   -1.2060 O.3     1  UNL1       -0.4435
     33 C          -2.3561   -0.9239   -1.8960 C.2     1  UNL1        0.4039
     34 O          -2.0399   -1.4640   -2.9863 O.2     1  UNL1       -0.2262
     35 H          -1.9902    2.2537   -2.4938 H       1  UNL1        0.0251
     36 H          -0.7940    2.7202   -1.2617 H       1  UNL1        0.0251
     37 H          -0.3512    2.6859   -3.0489 H       1  UNL1        0.0251
     38 H          -0.6482    0.3584   -3.2120 H       1  UNL1        0.0549
     39 H           1.4538    2.5593   -1.8954 H       1  UNL1        0.0621
     40 H           3.7830    2.2045   -1.0969 H       1  UNL1        0.0624
     41 H           5.7855    1.4151   -1.5104 H       1  UNL1        0.0638
     42 H           8.0618    1.0187   -0.7072 H       1  UNL1        0.0810
     43 H           9.3566   -1.5785    0.5298 H       1  UNL1        0.0529
     44 H          10.7762    0.3596    1.2166 H       1  UNL1        0.0286
     45 H           9.2166    1.4174    1.2932 H       1  UNL1        0.0286
     46 H           9.8719   -1.2025    2.9621 H       1  UNL1        0.0286
     47 H           8.2771   -0.2264    3.1047 H       1  UNL1        0.0286
     48 H           4.4003   -1.6951    1.0287 H       1  UNL1        0.0678
     49 H           2.9165   -1.8861   -0.5976 H       1  UNL1        0.0624
     50 H           0.5717   -1.5431   -1.3989 H       1  UNL1        0.0621
     51 H          -0.5646    0.0112    0.4995 H       1  UNL1        0.0467
     52 H          -1.5160    1.4663    0.1710 H       1  UNL1        0.0467
     53 H          -2.9317    0.2730    1.7329 H       1  UNL1        0.0319
     54 H          -2.3087   -1.2630    1.1397 H       1  UNL1        0.0319
     55 H          -5.1599   -1.0054    1.6706 H       1  UNL1        0.0306
     56 H          -5.8035   -1.4686    0.0110 H       1  UNL1        0.0306
     57 H          -3.2458   -2.9160    0.9973 H       1  UNL1        0.0302
     58 H          -6.2488   -3.3656    1.8623 H       1  UNL1        0.0268
     59 H          -4.7745   -4.4460    2.2896 H       1  UNL1        0.0268
     60 H          -5.7940   -3.5750   -0.5923 H       1  UNL1        0.0268
     61 H          -4.3888   -4.7360   -0.2432 H       1  UNL1        0.0268
     62 H          -3.7883    1.2180   -1.2953 H       1  UNL1        0.0331
     63 H          -5.3913    0.4805   -1.1830 H       1  UNL1        0.0331
     64 H          -4.5896    3.5131   -0.8980 H       1  UNL1        0.0257
     65 H          -6.0113    3.6453    0.2357 H       1  UNL1        0.0257
     66 H          -6.1188    2.5994   -1.2833 H       1  UNL1        0.0257
     67 H          -6.6978    0.6589    0.9108 H       1  UNL1        0.0257
     68 H          -6.7137    2.3289    1.4721 H       1  UNL1        0.0257
     69 H          -5.6515    1.2294    2.3410 H       1  UNL1        0.0257
     70 H          -4.2844    2.7222    2.0006 H       1  UNL1        0.2101
@<TRIPOS>BOND
     1     1     2    1
     2     2     3    1
     3     3     4   ar
     4     4     5   ar
     5     5     6   ar
     6     6     7    1
     7     7     8   ar
     8     8     9   ar
     9     9    10   ar
    10    10    11    1
    11    11    12    1
    12    12    13    1
    13    10    14   ar
    14    14    15    2
    15    14    16   ar
    16     6    17   ar
    17    17    18   ar
    18     2    19    1
    19    19    20    1
    20    20    21    1
    21    21    22    1
    22    22    23    1
    23    23    24    1
    24    24    25    1
    25    25    26    1
    26    22    27    1
    27    27    28    1
    28    28    29    1
    29    28    30    1
    30    28    31    1
    31    22    32    1
    32    32    33    1
    33    33    34    2
    34    18     3   ar
    35    33    19   am
    36    16     7   ar
    37    26    24    1
    38    13    11    1
    39     1    35    1
    40     1    36    1
    41     1    37    1
    42     2    38    1
    43     4    39    1
    44     5    40    1
    45     8    41    1
    46     9    42    1
    47    11    43    1
    48    12    44    1
    49    12    45    1
    50    13    46    1
    51    13    47    1
    52    16    48    1
    53    17    49    1
    54    18    50    1
    55    20    51    1
    56    20    52    1
    57    21    53    1
    58    21    54    1
    59    23    55    1
    60    23    56    1
    61    24    57    1
    62    25    58    1
    63    25    59    1
    64    26    60    1
    65    26    61    1
    66    27    62    1
    67    27    63    1
    68    29    64    1
    69    29    65    1
    70    29    66    1
    71    30    67    1
    72    30    68    1
    73    30    69    1
    74    31    70    1
