
     RDKit          3D

 70 74  0  0  0  0  0  0  0  0999 V2000
   -0.9163    2.2008   -2.2198 C   0  0  0  0  0  0  0  0  0  0  0  0
   -0.5351    0.7399   -2.1778 C   0  0  1  0  0  0  0  0  0  0  0  0
    0.8634    0.5534   -1.7026 C   0  0  0  0  0  0  0  0  0  0  0  0
    1.7745    1.5849   -1.6109 C   0  0  0  0  0  0  0  0  0  0  0  0
    3.0703    1.3832   -1.1657 C   0  0  0  0  0  0  0  0  0  0  0  0
    3.5004    0.1263   -0.7936 C   0  0  0  0  0  0  0  0  0  0  0  0
    4.8580   -0.0979   -0.3251 C   0  0  0  0  0  0  0  0  0  0  0  0
    5.9350    0.6358   -0.7773 C   0  0  0  0  0  0  0  0  0  0  0  0
    7.2235    0.4238   -0.3339 C   0  0  0  0  0  0  0  0  0  0  0  0
    7.4662   -0.5345    0.5792 N   0  0  0  0  0  0  0  0  0  0  0  0
    8.8035   -0.7553    1.0394 C   0  0  0  0  0  0  0  0  0  0  0  0
    9.6706    0.4337    1.4322 C   0  0  0  0  0  0  0  0  0  0  0  0
    9.1691   -0.4728    2.4857 C   0  0  0  0  0  0  0  0  0  0  0  0
    6.4630   -1.2739    1.0510 C   0  0  0  0  0  0  0  0  0  0  0  0
    6.7353   -2.1642    1.9085 O   0  0  0  0  0  0  0  0  0  0  0  0
    5.1609   -1.0798    0.6211 C   0  0  0  0  0  0  0  0  0  0  0  0
    2.5759   -0.9088   -0.8889 C   0  0  0  0  0  0  0  0  0  0  0  0
    1.2841   -0.7069   -1.3328 C   0  0  0  0  0  0  0  0  0  0  0  0
   -1.4876    0.0517   -1.3405 N   0  0  0  0  0  0  0  0  0  0  0  0
   -1.5408    0.3646    0.0528 C   0  0  0  0  0  0  0  0  0  0  0  0
   -2.6857   -0.2961    0.7860 C   0  0  0  0  0  0  0  0  0  0  0  0
   -3.9001   -0.4738   -0.0319 C   0  0  0  0  0  0  0  0  0  0  0  0
   -4.8957   -1.3623    0.6470 C   0  0  0  0  0  0  0  0  0  0  0  0
   -4.3102   -2.7381    0.8571 C   0  0  0  0  0  0  0  0  0  0  0  0
   -5.2452   -3.7613    1.5585 C   0  0  0  0  0  0  0  0  0  0  0  0
   -4.9886   -3.8770    0.1141 C   0  0  0  0  0  0  0  0  0  0  0  0
   -4.4880    0.7853   -0.5814 C   0  0  0  0  0  0  0  0  0  0  0  0
   -4.9263    1.8190    0.3755 C   0  0  0  0  0  0  0  0  0  0  0  0
   -5.4740    2.9815   -0.4756 C   0  0  0  0  0  0  0  0  0  0  0  0
   -6.0417    1.4346    1.3016 C   0  0  0  0  0  0  0  0  0  0  0  0
   -3.9164    2.3717    1.1387 O   0  0  0  0  0  0  0  0  0  0  0  0
   -3.5103   -1.2311   -1.2060 O   0  0  0  0  0  0  0  0  0  0  0  0
   -2.3561   -0.9239   -1.8960 C   0  0  0  0  0  0  0  0  0  0  0  0
   -2.0399   -1.4640   -2.9863 O   0  0  0  0  0  0  0  0  0  0  0  0
   -1.9902    2.2537   -2.4938 H   0  0  0  0  0  0  0  0  0  0  0  0
   -0.7940    2.7202   -1.2617 H   0  0  0  0  0  0  0  0  0  0  0  0
   -0.3512    2.6859   -3.0489 H   0  0  0  0  0  0  0  0  0  0  0  0
   -0.6482    0.3584   -3.2120 H   0  0  0  0  0  0  0  0  0  0  0  0
    1.4538    2.5593   -1.8954 H   0  0  0  0  0  0  0  0  0  0  0  0
    3.7830    2.2045   -1.0969 H   0  0  0  0  0  0  0  0  0  0  0  0
    5.7855    1.4151   -1.5104 H   0  0  0  0  0  0  0  0  0  0  0  0
    8.0618    1.0187   -0.7072 H   0  0  0  0  0  0  0  0  0  0  0  0
    9.3566   -1.5785    0.5298 H   0  0  0  0  0  0  0  0  0  0  0  0
   10.7762    0.3596    1.2166 H   0  0  0  0  0  0  0  0  0  0  0  0
    9.2166    1.4174    1.2932 H   0  0  0  0  0  0  0  0  0  0  0  0
    9.8719   -1.2025    2.9621 H   0  0  0  0  0  0  0  0  0  0  0  0
    8.2771   -0.2264    3.1047 H   0  0  0  0  0  0  0  0  0  0  0  0
    4.4003   -1.6951    1.0287 H   0  0  0  0  0  0  0  0  0  0  0  0
    2.9165   -1.8861   -0.5976 H   0  0  0  0  0  0  0  0  0  0  0  0
    0.5717   -1.5431   -1.3989 H   0  0  0  0  0  0  0  0  0  0  0  0
   -0.5646    0.0112    0.4995 H   0  0  0  0  0  0  0  0  0  0  0  0
   -1.5160    1.4663    0.1710 H   0  0  0  0  0  0  0  0  0  0  0  0
   -2.9317    0.2730    1.7329 H   0  0  0  0  0  0  0  0  0  0  0  0
   -2.3087   -1.2630    1.1397 H   0  0  0  0  0  0  0  0  0  0  0  0
   -5.1599   -1.0054    1.6706 H   0  0  0  0  0  0  0  0  0  0  0  0
   -5.8035   -1.4686    0.0110 H   0  0  0  0  0  0  0  0  0  0  0  0
   -3.2458   -2.9160    0.9973 H   0  0  0  0  0  0  0  0  0  0  0  0
   -6.2488   -3.3656    1.8623 H   0  0  0  0  0  0  0  0  0  0  0  0
   -4.7745   -4.4460    2.2896 H   0  0  0  0  0  0  0  0  0  0  0  0
   -5.7940   -3.5750   -0.5923 H   0  0  0  0  0  0  0  0  0  0  0  0
   -4.3888   -4.7360   -0.2432 H   0  0  0  0  0  0  0  0  0  0  0  0
   -3.7883    1.2180   -1.2953 H   0  0  0  0  0  0  0  0  0  0  0  0
   -5.3913    0.4805   -1.1830 H   0  0  0  0  0  0  0  0  0  0  0  0
   -4.5896    3.5131   -0.8980 H   0  0  0  0  0  0  0  0  0  0  0  0
   -6.0113    3.6453    0.2357 H   0  0  0  0  0  0  0  0  0  0  0  0
   -6.1188    2.5994   -1.2833 H   0  0  0  0  0  0  0  0  0  0  0  0
   -6.6978    0.6589    0.9108 H   0  0  0  0  0  0  0  0  0  0  0  0
   -6.7137    2.3289    1.4721 H   0  0  0  0  0  0  0  0  0  0  0  0
   -5.6515    1.2294    2.3410 H   0  0  0  0  0  0  0  0  0  0  0  0
   -4.2844    2.7222    2.0006 H   0  0  0  0  0  0  0  0  0  0  0  0
  1  2  1  0
  2  3  1  0
  3  4  2  0
  4  5  1  0
  5  6  2  0
  6  7  1  0
  7  8  1  0
  8  9  2  0
  9 10  1  0
 10 11  1  0
 11 12  1  0
 12 13  1  0
 10 14  1  0
 14 15  2  0
 14 16  1  0
  6 17  1  0
 17 18  2  0
  2 19  1  0
 19 20  1  0
 20 21  1  0
 21 22  1  0
 22 23  1  0
 23 24  1  0
 24 25  1  0
 25 26  1  0
 22 27  1  0
 27 28  1  0
 28 29  1  0
 28 30  1  0
 28 31  1  0
 22 32  1  0
 32 33  1  0
 33 34  2  0
 18  3  1  0
 33 19  1  0
 16  7  2  0
 26 24  1  0
 13 11  1  0
  1 35  1  0
  1 36  1  0
  1 37  1  0
  2 38  1  6
  4 39  1  0
  5 40  1  0
  8 41  1  0
  9 42  1  0
 11 43  1  0
 12 44  1  0
 12 45  1  0
 13 46  1  0
 13 47  1  0
 16 48  1  0
 17 49  1  0
 18 50  1  0
 20 51  1  0
 20 52  1  0
 21 53  1  0
 21 54  1  0
 23 55  1  0
 23 56  1  0
 24 57  1  0
 25 58  1  0
 25 59  1  0
 26 60  1  0
 26 61  1  0
 27 62  1  0
 27 63  1  0
 29 64  1  0
 29 65  1  0
 29 66  1  0
 30 67  1  0
 30 68  1  0
 30 69  1  0
 31 70  1  0
M  END
$$$$
