
     RDKit          3D

 86 91  0  0  0  0  0  0  0  0999 V2000
   10.3741    0.9289    3.5702 C   0  0  0  0  0  0  0  0  0  0  0  0
   10.0681    0.8390    2.2078 O   0  0  0  0  0  0  0  0  0  0  0  0
    8.8915    0.3969    1.6575 C   0  0  0  0  0  0  0  0  0  0  0  0
    7.7933   -0.0403    2.3891 C   0  0  0  0  0  0  0  0  0  0  0  0
    6.6377   -0.4742    1.8006 C   0  0  0  0  0  0  0  0  0  0  0  0
    6.5484   -0.4824    0.4277 C   0  0  0  0  0  0  0  0  0  0  0  0
    7.6464   -0.0449   -0.3047 C   0  0  0  0  0  0  0  0  0  0  0  0
    8.8135    0.3940    0.2671 C   0  0  0  0  0  0  0  0  0  0  0  0
    9.8923    0.8252   -0.5134 O   0  0  0  0  0  0  0  0  0  0  0  0
    9.7510    0.7998   -1.9180 C   0  0  0  0  0  0  0  0  0  0  0  0
    5.3302   -0.9547   -0.2723 C   0  0  0  0  0  0  0  0  0  0  0  0
    4.1745   -0.6163    0.5296 N   0  0  0  0  0  0  0  0  0  0  0  0
    4.0668    0.7986    0.6174 C   0  0  0  0  0  0  0  0  0  0  0  0
    2.7849    1.3103    1.2352 C   0  0  0  0  0  0  0  0  0  0  0  0
    1.6141    0.8700    0.4062 C   0  0  0  0  0  0  0  0  0  0  0  0
    0.9501   -0.2953    0.6925 C   0  0  0  0  0  0  0  0  0  0  0  0
   -0.1233   -0.7355   -0.0934 C   0  0  0  0  0  0  0  0  0  0  0  0
   -0.5434    0.0021   -1.1881 C   0  0  0  0  0  0  0  0  0  0  0  0
   -1.6167   -0.4606   -1.9965 N   0  0  0  0  0  0  0  0  0  0  0  0
   -2.9800   -0.1527   -1.8183 C   0  0  0  0  0  0  0  0  0  0  0  0
   -3.2878    0.6003   -0.8621 O   0  0  0  0  0  0  0  0  0  0  0  0
   -4.0561   -0.6513   -2.6697 C   0  0  0  0  0  0  0  0  0  0  0  0
   -3.7618   -1.5001   -3.7426 C   0  0  0  0  0  0  0  0  0  0  0  0
   -4.7439   -2.0032   -4.5657 C   0  0  0  0  0  0  0  0  0  0  0  0
   -4.4481   -2.8441   -5.6274 O   0  0  0  0  0  0  0  0  0  0  0  0
   -3.1241   -3.2341   -5.9265 C   0  0  0  0  0  0  0  0  0  0  0  0
   -6.0551   -1.6514   -4.3141 C   0  0  0  0  0  0  0  0  0  0  0  0
   -7.0367   -2.1664   -5.1515 O   0  0  0  0  0  0  0  0  0  0  0  0
   -8.3825   -1.8058   -4.8887 C   0  0  0  0  0  0  0  0  0  0  0  0
   -6.3415   -0.8042   -3.2436 C   0  0  0  0  0  0  0  0  0  0  0  0
   -5.3649   -0.2965   -2.4151 C   0  0  0  0  0  0  0  0  0  0  0  0
   -5.6647    0.5682   -1.3188 N   0  0  0  0  0  0  0  0  0  0  0  0
   -5.9071    0.0801   -0.0114 C   0  0  0  0  0  0  0  0  0  0  0  0
   -5.8430   -1.1689    0.1345 O   0  0  0  0  0  0  0  0  0  0  0  0
   -6.2167    0.9127    1.1432 C   0  0  0  0  0  0  0  0  0  0  0  0
   -6.3731    2.2737    1.0709 C   0  0  0  0  0  0  0  0  0  0  0  0
   -6.6479    3.0496    2.1564 N   0  0  0  0  0  0  0  0  0  0  0  0
   -6.7829    2.5129    3.3791 C   0  0  0  0  0  0  0  0  0  0  0  0
   -7.0569    3.3116    4.4877 C   0  0  0  0  0  0  0  0  0  0  0  0
   -7.1750    2.6965    5.7085 C   0  0  0  0  0  0  0  0  0  0  0  0
   -7.0379    1.3430    5.8893 C   0  0  0  0  0  0  0  0  0  0  0  0
   -6.7651    0.5874    4.7554 C   0  0  0  0  0  0  0  0  0  0  0  0
   -6.6344    1.1483    3.4993 C   0  0  0  0  0  0  0  0  0  0  0  0
   -6.3528    0.3461    2.3925 C   0  0  0  0  0  0  0  0  0  0  0  0
    0.1444    1.1664   -1.4456 C   0  0  0  0  0  0  0  0  0  0  0  0
    1.2022    1.6213   -0.6889 C   0  0  0  0  0  0  0  0  0  0  0  0
    4.3005   -1.2933    1.7875 C   0  0  0  0  0  0  0  0  0  0  0  0
    5.5043   -0.9214    2.6026 C   0  0  0  0  0  0  0  0  0  0  0  0
   10.8735    1.9186    3.7989 H   0  0  0  0  0  0  0  0  0  0  0  0
    9.5197    0.8506    4.2567 H   0  0  0  0  0  0  0  0  0  0  0  0
   11.0887    0.1108    3.8471 H   0  0  0  0  0  0  0  0  0  0  0  0
    7.9001   -0.0219    3.4646 H   0  0  0  0  0  0  0  0  0  0  0  0
    7.5312   -0.0687   -1.3822 H   0  0  0  0  0  0  0  0  0  0  0  0
   10.7635    0.9289   -2.3536 H   0  0  0  0  0  0  0  0  0  0  0  0
    9.1050    1.5920   -2.2910 H   0  0  0  0  0  0  0  0  0  0  0  0
    9.3522   -0.1718   -2.2904 H   0  0  0  0  0  0  0  0  0  0  0  0
    5.2639   -0.4622   -1.2651 H   0  0  0  0  0  0  0  0  0  0  0  0
    5.4065   -2.0614   -0.3636 H   0  0  0  0  0  0  0  0  0  0  0  0
    4.1056    1.1980   -0.4265 H   0  0  0  0  0  0  0  0  0  0  0  0
    4.9267    1.2784    1.1449 H   0  0  0  0  0  0  0  0  0  0  0  0
    2.7997    2.4168    1.1974 H   0  0  0  0  0  0  0  0  0  0  0  0
    2.6084    0.9540    2.2448 H   0  0  0  0  0  0  0  0  0  0  0  0
    1.2513   -0.8855    1.5375 H   0  0  0  0  0  0  0  0  0  0  0  0
   -0.6529   -1.6570    0.1299 H   0  0  0  0  0  0  0  0  0  0  0  0
   -1.3356   -1.0859   -2.7879 H   0  0  0  0  0  0  0  0  0  0  0  0
   -2.7542   -1.8051   -3.9779 H   0  0  0  0  0  0  0  0  0  0  0  0
   -2.7824   -4.0080   -5.1837 H   0  0  0  0  0  0  0  0  0  0  0  0
   -2.3975   -2.4043   -5.8983 H   0  0  0  0  0  0  0  0  0  0  0  0
   -3.0419   -3.6957   -6.9307 H   0  0  0  0  0  0  0  0  0  0  0  0
   -8.6238   -1.9750   -3.8024 H   0  0  0  0  0  0  0  0  0  0  0  0
   -9.0916   -2.3606   -5.5382 H   0  0  0  0  0  0  0  0  0  0  0  0
   -8.4597   -0.7099   -5.0272 H   0  0  0  0  0  0  0  0  0  0  0  0
   -7.3530   -0.5328   -3.0482 H   0  0  0  0  0  0  0  0  0  0  0  0
   -5.7112    1.6001   -1.4672 H   0  0  0  0  0  0  0  0  0  0  0  0
   -6.2710    2.7573    0.0946 H   0  0  0  0  0  0  0  0  0  0  0  0
   -7.1647    4.3874    4.3380 H   0  0  0  0  0  0  0  0  0  0  0  0
   -7.3893    3.3472    6.5602 H   0  0  0  0  0  0  0  0  0  0  0  0
   -7.1343    0.8626    6.8649 H   0  0  0  0  0  0  0  0  0  0  0  0
   -6.6474   -0.4877    4.8502 H   0  0  0  0  0  0  0  0  0  0  0  0
   -6.2466   -0.7159    2.5434 H   0  0  0  0  0  0  0  0  0  0  0  0
   -0.1808    1.7535   -2.3044 H   0  0  0  0  0  0  0  0  0  0  0  0
    1.7307    2.5506   -0.9150 H   0  0  0  0  0  0  0  0  0  0  0  0
    3.4026   -1.2243    2.4376 H   0  0  0  0  0  0  0  0  0  0  0  0
    4.3983   -2.3938    1.5450 H   0  0  0  0  0  0  0  0  0  0  0  0
    5.8403   -1.8350    3.1729 H   0  0  0  0  0  0  0  0  0  0  0  0
    5.2047   -0.2025    3.3936 H   0  0  0  0  0  0  0  0  0  0  0  0
  1  2  1  0
  2  3  1  0
  3  4  2  0
  4  5  1  0
  5  6  2  0
  6  7  1  0
  7  8  2  0
  8  9  1  0
  9 10  1  0
  6 11  1  0
 11 12  1  0
 12 13  1  0
 13 14  1  0
 14 15  1  0
 15 16  2  0
 16 17  1  0
 17 18  2  0
 18 19  1  0
 19 20  1  0
 20 21  2  0
 20 22  1  0
 22 23  2  0
 23 24  1  0
 24 25  1  0
 25 26  1  0
 24 27  2  0
 27 28  1  0
 28 29  1  0
 27 30  1  0
 30 31  2  0
 31 32  1  0
 32 33  1  0
 33 34  2  0
 33 35  1  0
 35 36  2  0
 36 37  1  0
 37 38  2  0
 38 39  1  0
 39 40  2  0
 40 41  1  0
 41 42  2  0
 42 43  1  0
 43 44  2  0
 18 45  1  0
 45 46  2  0
 12 47  1  0
 47 48  1  0
  8  3  1  0
 46 15  1  0
 48  5  1  0
 31 22  1  0
 44 35  1  0
 43 38  1  0
  1 49  1  0
  1 50  1  0
  1 51  1  0
  4 52  1  0
  7 53  1  0
 10 54  1  0
 10 55  1  0
 10 56  1  0
 11 57  1  0
 11 58  1  0
 13 59  1  0
 13 60  1  0
 14 61  1  0
 14 62  1  0
 16 63  1  0
 17 64  1  0
 19 65  1  0
 23 66  1  0
 26 67  1  0
 26 68  1  0
 26 69  1  0
 29 70  1  0
 29 71  1  0
 29 72  1  0
 30 73  1  0
 32 74  1  0
 36 75  1  0
 39 76  1  0
 40 77  1  0
 41 78  1  0
 42 79  1  0
 44 80  1  0
 45 81  1  0
 46 82  1  0
 47 83  1  0
 47 84  1  0
 48 85  1  0
 48 86  1  0
M  END
$$$$
