@<TRIPOS>MOLECULE
*****
 86 91 0 0 0
SMALL
GASTEIGER

@<TRIPOS>ATOM
      1 C          10.3741    0.9289    3.5702 C.3     1  UNL1        0.0790
      2 O          10.0681    0.8390    2.2078 O.3     1  UNL1       -0.4914
      3 C           8.8915    0.3969    1.6575 C.ar    1  UNL1        0.1618
      4 C           7.7933   -0.0403    2.3891 C.ar    1  UNL1       -0.0128
      5 C           6.6377   -0.4742    1.8006 C.ar    1  UNL1       -0.0381
      6 C           6.5484   -0.4824    0.4277 C.ar    1  UNL1       -0.0265
      7 C           7.6464   -0.0449   -0.3047 C.ar    1  UNL1       -0.0116
      8 C           8.8135    0.3940    0.2671 C.ar    1  UNL1        0.1618
      9 O           9.8923    0.8252   -0.5134 O.3     1  UNL1       -0.4914
     10 C           9.7510    0.7998   -1.9180 C.3     1  UNL1        0.0790
     11 C           5.3302   -0.9547   -0.2723 C.3     1  UNL1        0.0244
     12 N           4.1745   -0.6163    0.5296 N.3     1  UNL1       -0.2975
     13 C           4.0668    0.7986    0.6174 C.3     1  UNL1        0.0032
     14 C           2.7849    1.3103    1.2352 C.3     1  UNL1       -0.0149
     15 C           1.6141    0.8700    0.4062 C.ar    1  UNL1       -0.0460
     16 C           0.9501   -0.2953    0.6925 C.ar    1  UNL1       -0.0568
     17 C          -0.1233   -0.7355   -0.0934 C.ar    1  UNL1       -0.0402
     18 C          -0.5434    0.0021   -1.1881 C.ar    1  UNL1        0.0337
     19 N          -1.6167   -0.4606   -1.9965 N.am    1  UNL1       -0.2815
     20 C          -2.9800   -0.1527   -1.8183 C.2     1  UNL1        0.2502
     21 O          -3.2878    0.6003   -0.8621 O.2     1  UNL1       -0.2698
     22 C          -4.0561   -0.6513   -2.6697 C.ar    1  UNL1        0.0619
     23 C          -3.7618   -1.5001   -3.7426 C.ar    1  UNL1       -0.0024
     24 C          -4.7439   -2.0032   -4.5657 C.ar    1  UNL1        0.1623
     25 O          -4.4481   -2.8441   -5.6274 O.3     1  UNL1       -0.4914
     26 C          -3.1241   -3.2341   -5.9265 C.3     1  UNL1        0.0790
     27 C          -6.0551   -1.6514   -4.3141 C.ar    1  UNL1        0.1633
     28 O          -7.0367   -2.1664   -5.1515 O.3     1  UNL1       -0.4914
     29 C          -8.3825   -1.8058   -4.8887 C.3     1  UNL1        0.0790
     30 C          -6.3415   -0.8042   -3.2436 C.ar    1  UNL1        0.0057
     31 C          -5.3649   -0.2965   -2.4151 C.ar    1  UNL1        0.0495
     32 N          -5.6647    0.5682   -1.3188 N.am    1  UNL1       -0.2807
     33 C          -5.9071    0.0801   -0.0114 C.2     1  UNL1        0.2498
     34 O          -5.8430   -1.1689    0.1345 O.2     1  UNL1       -0.2698
     35 C          -6.2167    0.9127    1.1432 C.ar    1  UNL1        0.0557
     36 C          -6.3731    2.2737    1.0709 C.ar    1  UNL1        0.0404
     37 N          -6.6479    3.0496    2.1564 N.ar    1  UNL1       -0.2542
     38 C          -6.7829    2.5129    3.3791 C.ar    1  UNL1        0.0710
     39 C          -7.0569    3.3116    4.4877 C.ar    1  UNL1       -0.0357
     40 C          -7.1750    2.6965    5.7085 C.ar    1  UNL1       -0.0597
     41 C          -7.0379    1.3430    5.8893 C.ar    1  UNL1       -0.0611
     42 C          -6.7651    0.5874    4.7554 C.ar    1  UNL1       -0.0525
     43 C          -6.6344    1.1483    3.4993 C.ar    1  UNL1        0.0011
     44 C          -6.3528    0.3461    2.3925 C.ar    1  UNL1       -0.0390
     45 C           0.1444    1.1664   -1.4456 C.ar    1  UNL1       -0.0402
     46 C           1.2022    1.6213   -0.6889 C.ar    1  UNL1       -0.0568
     47 C           4.3005   -1.2933    1.7875 C.3     1  UNL1        0.0032
     48 C           5.5043   -0.9214    2.6026 C.3     1  UNL1       -0.0144
     49 H          10.8735    1.9186    3.7989 H       1  UNL1        0.0660
     50 H           9.5197    0.8506    4.2567 H       1  UNL1        0.0660
     51 H          11.0887    0.1108    3.8471 H       1  UNL1        0.0660
     52 H           7.9001   -0.0219    3.4646 H       1  UNL1        0.0658
     53 H           7.5312   -0.0687   -1.3822 H       1  UNL1        0.0658
     54 H          10.7635    0.9289   -2.3536 H       1  UNL1        0.0660
     55 H           9.1050    1.5920   -2.2910 H       1  UNL1        0.0660
     56 H           9.3522   -0.1718   -2.2904 H       1  UNL1        0.0660
     57 H           5.2639   -0.4622   -1.2651 H       1  UNL1        0.0476
     58 H           5.4065   -2.0614   -0.3636 H       1  UNL1        0.0476
     59 H           4.1056    1.1980   -0.4265 H       1  UNL1        0.0430
     60 H           4.9267    1.2784    1.1449 H       1  UNL1        0.0430
     61 H           2.7997    2.4168    1.1974 H       1  UNL1        0.0326
     62 H           2.6084    0.9540    2.2448 H       1  UNL1        0.0326
     63 H           1.2513   -0.8855    1.5375 H       1  UNL1        0.0621
     64 H          -0.6529   -1.6570    0.1299 H       1  UNL1        0.0636
     65 H          -1.3356   -1.0859   -2.7879 H       1  UNL1        0.1551
     66 H          -2.7542   -1.8051   -3.9779 H       1  UNL1        0.0663
     67 H          -2.7824   -4.0080   -5.1837 H       1  UNL1        0.0660
     68 H          -2.3975   -2.4043   -5.8983 H       1  UNL1        0.0660
     69 H          -3.0419   -3.6957   -6.9307 H       1  UNL1        0.0660
     70 H          -8.6238   -1.9750   -3.8024 H       1  UNL1        0.0660
     71 H          -9.0916   -2.3606   -5.5382 H       1  UNL1        0.0660
     72 H          -8.4597   -0.7099   -5.0272 H       1  UNL1        0.0660
     73 H          -7.3530   -0.5328   -3.0482 H       1  UNL1        0.0674
     74 H          -5.7112    1.6001   -1.4672 H       1  UNL1        0.1552
     75 H          -6.2710    2.7573    0.0946 H       1  UNL1        0.0837
     76 H          -7.1647    4.3874    4.3380 H       1  UNL1        0.0639
     77 H          -7.3893    3.3472    6.5602 H       1  UNL1        0.0618
     78 H          -7.1343    0.8626    6.8649 H       1  UNL1        0.0618
     79 H          -6.6474   -0.4877    4.8502 H       1  UNL1        0.0624
     80 H          -6.2466   -0.7159    2.5434 H       1  UNL1        0.0632
     81 H          -0.1808    1.7535   -2.3044 H       1  UNL1        0.0636
     82 H           1.7307    2.5506   -0.9150 H       1  UNL1        0.0621
     83 H           3.4026   -1.2243    2.4376 H       1  UNL1        0.0430
     84 H           4.3983   -2.3938    1.5450 H       1  UNL1        0.0430
     85 H           5.8403   -1.8350    3.1729 H       1  UNL1        0.0326
     86 H           5.2047   -0.2025    3.3936 H       1  UNL1        0.0326
@<TRIPOS>BOND
     1     1     2    1
     2     2     3    1
     3     3     4   ar
     4     4     5   ar
     5     5     6   ar
     6     6     7   ar
     7     7     8   ar
     8     8     9    1
     9     9    10    1
    10     6    11    1
    11    11    12    1
    12    12    13    1
    13    13    14    1
    14    14    15    1
    15    15    16   ar
    16    16    17   ar
    17    17    18   ar
    18    18    19    1
    19    19    20   am
    20    20    21    2
    21    20    22    1
    22    22    23   ar
    23    23    24   ar
    24    24    25    1
    25    25    26    1
    26    24    27   ar
    27    27    28    1
    28    28    29    1
    29    27    30   ar
    30    30    31   ar
    31    31    32    1
    32    32    33   am
    33    33    34    2
    34    33    35    1
    35    35    36   ar
    36    36    37   ar
    37    37    38   ar
    38    38    39   ar
    39    39    40   ar
    40    40    41   ar
    41    41    42   ar
    42    42    43   ar
    43    43    44   ar
    44    18    45   ar
    45    45    46   ar
    46    12    47    1
    47    47    48    1
    48     8     3   ar
    49    46    15   ar
    50    48     5    1
    51    31    22   ar
    52    44    35   ar
    53    43    38   ar
    54     1    49    1
    55     1    50    1
    56     1    51    1
    57     4    52    1
    58     7    53    1
    59    10    54    1
    60    10    55    1
    61    10    56    1
    62    11    57    1
    63    11    58    1
    64    13    59    1
    65    13    60    1
    66    14    61    1
    67    14    62    1
    68    16    63    1
    69    17    64    1
    70    19    65    1
    71    23    66    1
    72    26    67    1
    73    26    68    1
    74    26    69    1
    75    29    70    1
    76    29    71    1
    77    29    72    1
    78    30    73    1
    79    32    74    1
    80    36    75    1
    81    39    76    1
    82    40    77    1
    83    41    78    1
    84    42    79    1
    85    44    80    1
    86    45    81    1
    87    46    82    1
    88    47    83    1
    89    47    84    1
    90    48    85    1
    91    48    86    1
