
     RDKit          3D

 95101  0  0  0  0  0  0  0  0999 V2000
   -4.2524   -0.6107    4.5442 C   0  0  0  0  0  0  0  0  0  0  0  0
   -5.4821   -0.9448    3.9649 O   0  0  0  0  0  0  0  0  0  0  0  0
   -5.7497   -0.8003    2.6053 C   0  0  0  0  0  0  0  0  0  0  0  0
   -4.7010   -0.2907    1.8263 C   0  0  0  0  0  0  0  0  0  0  0  0
   -4.9219   -0.1342    0.4863 C   0  0  0  0  0  0  0  0  0  0  0  0
   -3.9339    0.3559   -0.4012 N   0  0  0  0  0  0  0  0  0  0  0  0
   -2.5817    0.5794   -0.0375 C   0  0  0  0  0  0  0  0  0  0  0  0
   -2.2993    1.3682    1.0236 N   0  0  0  0  0  0  0  0  0  0  0  0
   -0.9946    1.5286    1.3034 C   0  0  0  0  0  0  0  0  0  0  0  0
    0.0151    0.9474    0.5836 C   0  0  0  0  0  0  0  0  0  0  0  0
   -0.3217    0.1411   -0.5027 C   0  0  0  0  0  0  0  0  0  0  0  0
    0.6302   -0.4847   -1.2791 O   0  0  0  0  0  0  0  0  0  0  0  0
    1.9768   -0.4481   -1.2194 C   0  0  0  0  0  0  0  0  0  0  0  0
    2.6524   -1.6452   -0.9362 C   0  0  0  0  0  0  0  0  0  0  0  0
    4.0161   -1.7146   -0.8583 C   0  0  0  0  0  0  0  0  0  0  0  0
    4.8015   -0.5975   -1.0570 C   0  0  0  0  0  0  0  0  0  0  0  0
    6.2073   -0.6304   -1.0445 N   0  0  0  0  0  0  0  0  0  0  0  0
    7.0164   -0.5358    0.1387 C   0  0  0  0  0  0  0  0  0  0  0  0
    6.4230   -0.4268    1.2402 O   0  0  0  0  0  0  0  0  0  0  0  0
    8.4267   -0.5685    0.0248 N   0  0  0  0  0  0  0  0  0  0  0  0
    9.2572   -0.5099    1.1560 C   0  0  0  0  0  0  0  0  0  0  0  0
    8.9343   -0.4829    2.4761 C   0  0  0  0  0  0  0  0  0  0  0  0
   10.0971   -0.4231    3.2397 C   0  0  0  0  0  0  0  0  0  0  0  0
   10.2271   -0.3786    4.7145 C   0  0  0  0  0  0  0  0  0  0  0  0
    9.0200   -0.0551    5.2831 F   0  0  0  0  0  0  0  0  0  0  0  0
   11.1959    0.5688    5.0673 F   0  0  0  0  0  0  0  0  0  0  0  0
   10.6293   -1.6231    5.2017 F   0  0  0  0  0  0  0  0  0  0  0  0
   11.1018   -0.4157    2.3291 N   0  0  0  0  0  0  0  0  0  0  0  0
   10.6252   -0.4654    1.1173 N   0  0  0  0  0  0  0  0  0  0  0  0
   11.3307   -0.4684   -0.1299 C   0  0  0  0  0  0  0  0  0  0  0  0
   11.3108   -1.5535   -0.9807 C   0  0  0  0  0  0  0  0  0  0  0  0
   11.9791   -1.5164   -2.1655 C   0  0  0  0  0  0  0  0  0  0  0  0
   12.6797   -0.4005   -2.5272 C   0  0  0  0  0  0  0  0  0  0  0  0
   13.4329   -0.3073   -3.8275 C   0  0  0  0  0  0  0  0  0  0  0  0
   12.6988    0.6769   -1.6803 C   0  0  0  0  0  0  0  0  0  0  0  0
   12.0298    0.6739   -0.4660 C   0  0  0  0  0  0  0  0  0  0  0  0
    4.1566    0.5791   -1.3332 C   0  0  0  0  0  0  0  0  0  0  0  0
    4.9384    1.7151   -1.5502 C   0  0  0  0  0  0  0  0  0  0  0  0
    4.3439    2.9233   -1.8480 C   0  0  0  0  0  0  0  0  0  0  0  0
    2.9659    2.9660   -1.9229 C   0  0  0  0  0  0  0  0  0  0  0  0
    2.1769    1.8652   -1.7133 C   0  0  0  0  0  0  0  0  0  0  0  0
    2.7633    0.6644   -1.4161 C   0  0  0  0  0  0  0  0  0  0  0  0
   -1.6327   -0.0137   -0.7748 N   0  0  0  0  0  0  0  0  0  0  0  0
   -6.1611   -0.4815   -0.0449 C   0  0  0  0  0  0  0  0  0  0  0  0
   -7.2011   -0.9834    0.7073 C   0  0  0  0  0  0  0  0  0  0  0  0
   -8.4520   -1.3420    0.0521 C   0  0  0  0  0  0  0  0  0  0  0  0
   -8.4983   -1.3453   -1.2172 O   0  0  0  0  0  0  0  0  0  0  0  0
   -9.6481   -1.6955    0.6938 N   0  0  0  0  0  0  0  0  0  0  0  0
  -10.8577   -2.0488   -0.0215 C   0  0  0  0  0  0  0  0  0  0  0  0
  -11.3389   -0.9778   -0.9303 C   0  0  0  0  0  0  0  0  0  0  0  0
  -11.6586    0.2745   -0.3370 N   0  0  0  0  0  0  0  0  0  0  0  0
  -12.8093    0.2986    0.5035 C   0  0  0  0  0  0  0  0  0  0  0  0
  -13.8794    1.1681   -0.1707 C   0  0  0  0  0  0  0  0  0  0  0  0
  -13.9990    0.7455   -1.4941 O   0  0  0  0  0  0  0  0  0  0  0  0
  -12.9209    1.2598   -2.2135 C   0  0  0  0  0  0  0  0  0  0  0  0
  -11.6598    1.2891   -1.3710 C   0  0  0  0  0  0  0  0  0  0  0  0
   -6.9640   -1.1338    2.0454 C   0  0  0  0  0  0  0  0  0  0  0  0
   -3.4708   -1.2933    4.1070 H   0  0  0  0  0  0  0  0  0  0  0  0
   -3.9212    0.4187    4.3056 H   0  0  0  0  0  0  0  0  0  0  0  0
   -4.2803   -0.8061    5.6248 H   0  0  0  0  0  0  0  0  0  0  0  0
   -3.7490   -0.0306    2.2711 H   0  0  0  0  0  0  0  0  0  0  0  0
   -4.1662    0.5803   -1.4034 H   0  0  0  0  0  0  0  0  0  0  0  0
   -0.7487    2.1605    2.1588 H   0  0  0  0  0  0  0  0  0  0  0  0
    1.0498    1.1052    0.8479 H   0  0  0  0  0  0  0  0  0  0  0  0
    2.0371   -2.5222   -0.7811 H   0  0  0  0  0  0  0  0  0  0  0  0
    4.5233   -2.6499   -0.6389 H   0  0  0  0  0  0  0  0  0  0  0  0
    6.7444   -0.7315   -1.9662 H   0  0  0  0  0  0  0  0  0  0  0  0
    8.8295   -0.6572   -0.9449 H   0  0  0  0  0  0  0  0  0  0  0  0
    7.9755   -0.5013    2.9368 H   0  0  0  0  0  0  0  0  0  0  0  0
   10.7469   -2.4233   -0.6682 H   0  0  0  0  0  0  0  0  0  0  0  0
   11.9712   -2.3750   -2.8551 H   0  0  0  0  0  0  0  0  0  0  0  0
   13.7731   -1.3323   -4.0800 H   0  0  0  0  0  0  0  0  0  0  0  0
   12.7528    0.1033   -4.6216 H   0  0  0  0  0  0  0  0  0  0  0  0
   14.3071    0.3388   -3.7221 H   0  0  0  0  0  0  0  0  0  0  0  0
   13.2552    1.5837   -1.9488 H   0  0  0  0  0  0  0  0  0  0  0  0
   12.0537    1.5416    0.1985 H   0  0  0  0  0  0  0  0  0  0  0  0
    6.0239    1.6469   -1.4821 H   0  0  0  0  0  0  0  0  0  0  0  0
    4.9694    3.7857   -2.0114 H   0  0  0  0  0  0  0  0  0  0  0  0
    2.5080    3.9103   -2.1582 H   0  0  0  0  0  0  0  0  0  0  0  0
    1.1070    1.9192   -1.7949 H   0  0  0  0  0  0  0  0  0  0  0  0
   -6.3161   -0.3493   -1.1111 H   0  0  0  0  0  0  0  0  0  0  0  0
   -9.6717   -1.7075    1.7341 H   0  0  0  0  0  0  0  0  0  0  0  0
  -10.6175   -2.9332   -0.6406 H   0  0  0  0  0  0  0  0  0  0  0  0
  -11.6531   -2.3317    0.6782 H   0  0  0  0  0  0  0  0  0  0  0  0
  -12.2970   -1.3687   -1.3912 H   0  0  0  0  0  0  0  0  0  0  0  0
  -10.6861   -0.7907   -1.8067 H   0  0  0  0  0  0  0  0  0  0  0  0
  -13.2978   -0.7021    0.6168 H   0  0  0  0  0  0  0  0  0  0  0  0
  -12.5707    0.7284    1.4990 H   0  0  0  0  0  0  0  0  0  0  0  0
  -14.8336    1.0643    0.3559 H   0  0  0  0  0  0  0  0  0  0  0  0
  -13.6082    2.2310   -0.1778 H   0  0  0  0  0  0  0  0  0  0  0  0
  -12.7477    0.7627   -3.1811 H   0  0  0  0  0  0  0  0  0  0  0  0
  -13.1693    2.3262   -2.4384 H   0  0  0  0  0  0  0  0  0  0  0  0
  -11.4211    2.2882   -0.9917 H   0  0  0  0  0  0  0  0  0  0  0  0
  -10.8140    1.0324   -2.0758 H   0  0  0  0  0  0  0  0  0  0  0  0
   -7.7290   -1.5198    2.7002 H   0  0  0  0  0  0  0  0  0  0  0  0
  1  2  1  0
  2  3  1  0
  3  4  2  0
  4  5  1  0
  5  6  1  0
  6  7  1  0
  7  8  2  0
  8  9  1  0
  9 10  2  0
 10 11  1  0
 11 12  1  0
 12 13  1  0
 13 14  2  0
 14 15  1  0
 15 16  2  0
 16 17  1  0
 17 18  1  0
 18 19  2  0
 18 20  1  0
 20 21  1  0
 21 22  2  0
 22 23  1  0
 23 24  1  0
 24 25  1  0
 24 26  1  0
 24 27  1  0
 23 28  2  0
 28 29  1  0
 29 30  1  0
 30 31  2  0
 31 32  1  0
 32 33  2  0
 33 34  1  0
 33 35  1  0
 35 36  2  0
 16 37  1  0
 37 38  2  0
 38 39  1  0
 39 40  2  0
 40 41  1  0
 41 42  2  0
 11 43  2  0
  5 44  2  0
 44 45  1  0
 45 46  1  0
 46 47  2  0
 46 48  1  0
 48 49  1  0
 49 50  1  0
 50 51  1  0
 51 52  1  0
 52 53  1  0
 53 54  1  0
 54 55  1  0
 55 56  1  0
 45 57  2  0
 57  3  1  0
 43  7  1  0
 56 51  1  0
 42 13  1  0
 29 21  1  0
 36 30  1  0
 42 37  1  0
  1 58  1  0
  1 59  1  0
  1 60  1  0
  4 61  1  0
  6 62  1  0
  9 63  1  0
 10 64  1  0
 14 65  1  0
 15 66  1  0
 17 67  1  0
 20 68  1  0
 22 69  1  0
 31 70  1  0
 32 71  1  0
 34 72  1  0
 34 73  1  0
 34 74  1  0
 35 75  1  0
 36 76  1  0
 38 77  1  0
 39 78  1  0
 40 79  1  0
 41 80  1  0
 44 81  1  0
 48 82  1  0
 49 83  1  0
 49 84  1  0
 50 85  1  0
 50 86  1  0
 52 87  1  0
 52 88  1  0
 53 89  1  0
 53 90  1  0
 55 91  1  0
 55 92  1  0
 56 93  1  0
 56 94  1  0
 57 95  1  0
M  END
$$$$
