@<TRIPOS>MOLECULE
*****
 95 101 0 0 0
SMALL
GASTEIGER

@<TRIPOS>ATOM
      1 C          -4.2524   -0.6107    4.5442 C.3     1  UNL1        0.0788
      2 O          -5.4821   -0.9448    3.9649 O.3     1  UNL1       -0.4950
      3 C          -5.7497   -0.8003    2.6053 C.ar    1  UNL1        0.1226
      4 C          -4.7010   -0.2907    1.8263 C.ar    1  UNL1        0.0013
      5 C          -4.9219   -0.1342    0.4863 C.ar    1  UNL1        0.0378
      6 N          -3.9339    0.3559   -0.4012 N.pl3   1  UNL1       -0.2834
      7 C          -2.5817    0.5794   -0.0375 C.ar    1  UNL1        0.2226
      8 N          -2.2993    1.3682    1.0236 N.ar    1  UNL1       -0.2225
      9 C          -0.9946    1.5286    1.3034 C.ar    1  UNL1        0.0362
     10 C           0.0151    0.9474    0.5836 C.ar    1  UNL1        0.0186
     11 C          -0.3217    0.1411   -0.5027 C.ar    1  UNL1        0.2249
     12 O           0.6302   -0.4847   -1.2791 O.3     1  UNL1       -0.4373
     13 C           1.9768   -0.4481   -1.2194 C.ar    1  UNL1        0.1381
     14 C           2.6524   -1.6452   -0.9362 C.ar    1  UNL1       -0.0169
     15 C           4.0161   -1.7146   -0.8583 C.ar    1  UNL1       -0.0363
     16 C           4.8015   -0.5975   -1.0570 C.ar    1  UNL1        0.0427
     17 N           6.2073   -0.6304   -1.0445 N.am    1  UNL1       -0.2686
     18 C           7.0164   -0.5358    0.1387 C.2     1  UNL1        0.3092
     19 O           6.4230   -0.4268    1.2402 O.2     1  UNL1       -0.2521
     20 N           8.4267   -0.5685    0.0248 N.am    1  UNL1       -0.2538
     21 C           9.2572   -0.5099    1.1560 C.ar    1  UNL1        0.1302
     22 C           8.9343   -0.4829    2.4761 C.ar    1  UNL1        0.0103
     23 C          10.0971   -0.4231    3.2397 C.ar    1  UNL1        0.1675
     24 C          10.2271   -0.3786    4.7145 C.3     1  UNL1        0.4360
     25 F           9.0200   -0.0551    5.2831 F       1  UNL1       -0.1644
     26 F          11.1959    0.5688    5.0673 F       1  UNL1       -0.1644
     27 F          10.6293   -1.6231    5.2017 F       1  UNL1       -0.1644
     28 N          11.1018   -0.4157    2.3291 N.ar    1  UNL1       -0.1606
     29 N          10.6252   -0.4654    1.1173 N.ar    1  UNL1       -0.2178
     30 C          11.3307   -0.4684   -0.1299 C.ar    1  UNL1        0.0674
     31 C          11.3108   -1.5535   -0.9807 C.ar    1  UNL1       -0.0359
     32 C          11.9791   -1.5164   -2.1655 C.ar    1  UNL1       -0.0568
     33 C          12.6797   -0.4005   -2.5272 C.ar    1  UNL1       -0.0503
     34 C          13.4329   -0.3073   -3.8275 C.3     1  UNL1       -0.0397
     35 C          12.6988    0.6769   -1.6803 C.ar    1  UNL1       -0.0568
     36 C          12.0298    0.6739   -0.4660 C.ar    1  UNL1       -0.0359
     37 C           4.1566    0.5791   -1.3332 C.ar    1  UNL1        0.0069
     38 C           4.9384    1.7151   -1.5502 C.ar    1  UNL1       -0.0521
     39 C           4.3439    2.9233   -1.8480 C.ar    1  UNL1       -0.0611
     40 C           2.9659    2.9660   -1.9229 C.ar    1  UNL1       -0.0611
     41 C           2.1769    1.8652   -1.7133 C.ar    1  UNL1       -0.0505
     42 C           2.7633    0.6644   -1.4161 C.ar    1  UNL1        0.0262
     43 N          -1.6327   -0.0137   -0.7748 N.ar    1  UNL1       -0.1789
     44 C          -6.1611   -0.4815   -0.0449 C.ar    1  UNL1       -0.0281
     45 C          -7.2011   -0.9834    0.7073 C.ar    1  UNL1        0.0419
     46 C          -8.4520   -1.3420    0.0521 C.2     1  UNL1        0.2443
     47 O          -8.4983   -1.3453   -1.2172 O.2     1  UNL1       -0.2702
     48 N          -9.6481   -1.6955    0.6938 N.am    1  UNL1       -0.3101
     49 C         -10.8577   -2.0488   -0.0215 C.3     1  UNL1        0.0247
     50 C         -11.3389   -0.9778   -0.9303 C.3     1  UNL1        0.0146
     51 N         -11.6586    0.2745   -0.3370 N.3     1  UNL1       -0.2965
     52 C         -12.8093    0.2986    0.5035 C.3     1  UNL1        0.0225
     53 C         -13.8794    1.1681   -0.1707 C.3     1  UNL1        0.0604
     54 O         -13.9990    0.7455   -1.4941 O.3     1  UNL1       -0.3772
     55 C         -12.9209    1.2598   -2.2135 C.3     1  UNL1        0.0604
     56 C         -11.6598    1.2891   -1.3710 C.3     1  UNL1        0.0225
     57 C          -6.9640   -1.1338    2.0454 C.ar    1  UNL1       -0.0077
     58 H          -3.4708   -1.2933    4.1070 H       1  UNL1        0.0660
     59 H          -3.9212    0.4187    4.3056 H       1  UNL1        0.0660
     60 H          -4.2803   -0.8061    5.6248 H       1  UNL1        0.0660
     61 H          -3.7490   -0.0306    2.2711 H       1  UNL1        0.0673
     62 H          -4.1662    0.5803   -1.4034 H       1  UNL1        0.1550
     63 H          -0.7487    2.1605    2.1588 H       1  UNL1        0.0832
     64 H           1.0498    1.1052    0.8479 H       1  UNL1        0.0686
     65 H           2.0371   -2.5222   -0.7811 H       1  UNL1        0.0655
     66 H           4.5233   -2.6499   -0.6389 H       1  UNL1        0.0637
     67 H           6.7444   -0.7315   -1.9662 H       1  UNL1        0.1564
     68 H           8.8295   -0.6572   -0.9449 H       1  UNL1        0.1578
     69 H           7.9755   -0.5013    2.9368 H       1  UNL1        0.0673
     70 H          10.7469   -2.4233   -0.6682 H       1  UNL1        0.0639
     71 H          11.9712   -2.3750   -2.8551 H       1  UNL1        0.0621
     72 H          13.7731   -1.3323   -4.0800 H       1  UNL1        0.0278
     73 H          12.7528    0.1033   -4.6216 H       1  UNL1        0.0278
     74 H          14.3071    0.3388   -3.7221 H       1  UNL1        0.0278
     75 H          13.2552    1.5837   -1.9488 H       1  UNL1        0.0621
     76 H          12.0537    1.5416    0.1985 H       1  UNL1        0.0639
     77 H           6.0239    1.6469   -1.4821 H       1  UNL1        0.0624
     78 H           4.9694    3.7857   -2.0114 H       1  UNL1        0.0618
     79 H           2.5080    3.9103   -2.1582 H       1  UNL1        0.0618
     80 H           1.1070    1.9192   -1.7949 H       1  UNL1        0.0625
     81 H          -6.3161   -0.3493   -1.1111 H       1  UNL1        0.0644
     82 H          -9.6717   -1.7075    1.7341 H       1  UNL1        0.1490
     83 H         -10.6175   -2.9332   -0.6406 H       1  UNL1        0.0475
     84 H         -11.6531   -2.3317    0.6782 H       1  UNL1        0.0475
     85 H         -12.2970   -1.3687   -1.3912 H       1  UNL1        0.0442
     86 H         -10.6861   -0.7907   -1.8067 H       1  UNL1        0.0442
     87 H         -13.2978   -0.7021    0.6168 H       1  UNL1        0.0449
     88 H         -12.5707    0.7284    1.4990 H       1  UNL1        0.0449
     89 H         -14.8336    1.0643    0.3559 H       1  UNL1        0.0572
     90 H         -13.6082    2.2310   -0.1778 H       1  UNL1        0.0572
     91 H         -12.7477    0.7627   -3.1811 H       1  UNL1        0.0572
     92 H         -13.1693    2.3262   -2.4384 H       1  UNL1        0.0572
     93 H         -11.4211    2.2882   -0.9917 H       1  UNL1        0.0449
     94 H         -10.8140    1.0324   -2.0758 H       1  UNL1        0.0449
     95 H          -7.7290   -1.5198    2.7002 H       1  UNL1        0.0662
@<TRIPOS>BOND
     1     1     2    1
     2     2     3    1
     3     3     4   ar
     4     4     5   ar
     5     5     6    1
     6     6     7    1
     7     7     8   ar
     8     8     9   ar
     9     9    10   ar
    10    10    11   ar
    11    11    12    1
    12    12    13    1
    13    13    14   ar
    14    14    15   ar
    15    15    16   ar
    16    16    17    1
    17    17    18   am
    18    18    19    2
    19    18    20   am
    20    20    21    1
    21    21    22   ar
    22    22    23   ar
    23    23    24    1
    24    24    25    1
    25    24    26    1
    26    24    27    1
    27    23    28   ar
    28    28    29   ar
    29    29    30    1
    30    30    31   ar
    31    31    32   ar
    32    32    33   ar
    33    33    34    1
    34    33    35   ar
    35    35    36   ar
    36    16    37   ar
    37    37    38   ar
    38    38    39   ar
    39    39    40   ar
    40    40    41   ar
    41    41    42   ar
    42    11    43   ar
    43     5    44   ar
    44    44    45   ar
    45    45    46    1
    46    46    47    2
    47    46    48   am
    48    48    49    1
    49    49    50    1
    50    50    51    1
    51    51    52    1
    52    52    53    1
    53    53    54    1
    54    54    55    1
    55    55    56    1
    56    45    57   ar
    57    57     3   ar
    58    43     7   ar
    59    56    51    1
    60    42    13   ar
    61    29    21   ar
    62    36    30   ar
    63    42    37   ar
    64     1    58    1
    65     1    59    1
    66     1    60    1
    67     4    61    1
    68     6    62    1
    69     9    63    1
    70    10    64    1
    71    14    65    1
    72    15    66    1
    73    17    67    1
    74    20    68    1
    75    22    69    1
    76    31    70    1
    77    32    71    1
    78    34    72    1
    79    34    73    1
    80    34    74    1
    81    35    75    1
    82    36    76    1
    83    38    77    1
    84    39    78    1
    85    40    79    1
    86    41    80    1
    87    44    81    1
    88    48    82    1
    89    49    83    1
    90    49    84    1
    91    50    85    1
    92    50    86    1
    93    52    87    1
    94    52    88    1
    95    53    89    1
    96    53    90    1
    97    55    91    1
    98    55    92    1
    99    56    93    1
   100    56    94    1
   101    57    95    1
