
     RDKit          3D

 58 60  0  0  0  0  0  0  0  0999 V2000
   -8.8087    3.3892    0.9313 C   0  0  0  0  0  0  0  0  0  0  0  0
   -7.9359    2.6956    0.5072 C   0  0  0  0  0  0  0  0  0  0  0  0
   -6.8902    1.8648   -0.0187 C   0  0  0  0  0  0  0  0  0  0  0  0
   -6.4472    2.0921   -1.3023 C   0  0  0  0  0  0  0  0  0  0  0  0
   -5.4714    1.3134   -1.8794 C   0  0  0  0  0  0  0  0  0  0  0  0
   -4.9492    0.2803   -1.1065 C   0  0  0  0  0  0  0  0  0  0  0  0
   -5.3764    0.0341    0.1806 C   0  0  0  0  0  0  0  0  0  0  0  0
   -4.8301   -1.0739    0.9337 N   0  0  0  0  0  0  0  0  0  0  0  0
   -4.2597   -2.1178    0.1358 C   0  0  0  0  0  0  0  0  0  0  0  0
   -5.0422   -3.1186   -0.3325 N   0  0  0  0  0  0  0  0  0  0  0  0
   -4.5619   -4.1018   -1.0947 C   0  0  0  0  0  0  0  0  0  0  0  0
   -3.2423   -4.0784   -1.3997 N   0  0  0  0  0  0  0  0  0  0  0  0
   -2.4263   -3.1047   -0.9565 C   0  0  0  0  0  0  0  0  0  0  0  0
   -1.1004   -3.0702   -1.2531 C   0  0  0  0  0  0  0  0  0  0  0  0
   -0.2465   -2.1055   -0.8226 C   0  0  0  0  0  0  0  0  0  0  0  0
    1.0790   -2.1225   -1.1554 O   0  0  0  0  0  0  0  0  0  0  0  0
    1.7551   -3.0429   -1.9422 C   0  0  0  0  0  0  0  0  0  0  0  0
   -0.7629   -1.0683   -0.0128 C   0  0  0  0  0  0  0  0  0  0  0  0
    0.0697   -0.1570    0.3898 O   0  0  0  0  0  0  0  0  0  0  0  0
    0.8861    0.7521    0.7948 C   0  0  0  0  0  0  0  0  0  0  0  0
    2.3531    0.5659    0.2953 C   0  0  0  0  0  0  0  0  0  0  0  0
    3.1351    1.6915    0.8565 C   0  0  0  0  0  0  0  0  0  0  0  0
    4.6068    1.6756    0.4915 C   0  0  0  0  0  0  0  0  0  0  0  0
    5.3033    0.4468    0.9505 C   0  0  0  0  0  0  0  0  0  0  0  0
    6.7483    0.4783    0.5681 C   0  0  0  0  0  0  0  0  0  0  0  0
    7.4392    1.5892    1.2333 C   0  0  0  0  0  0  0  0  0  0  0  0
    6.9173    2.3179    2.1094 O   0  0  0  0  0  0  0  0  0  0  0  0
    8.7996    1.9138    0.9015 N   0  0  0  0  0  0  0  0  0  0  0  0
    9.4538    2.9302    1.4999 O   0  0  0  0  0  0  0  0  0  0  0  0
   -2.1007   -1.0995    0.2891 C   0  0  0  0  0  0  0  0  0  0  0  0
   -2.9331   -2.0860   -0.1629 C   0  0  0  0  0  0  0  0  0  0  0  0
   -6.3563    0.8357    0.7280 C   0  0  0  0  0  0  0  0  0  0  0  0
   -9.6007    4.0382    1.3263 H   0  0  0  0  0  0  0  0  0  0  0  0
   -6.9079    2.9204   -1.8459 H   0  0  0  0  0  0  0  0  0  0  0  0
   -5.1154    1.4809   -2.8849 H   0  0  0  0  0  0  0  0  0  0  0  0
   -4.1780   -0.3545   -1.5396 H   0  0  0  0  0  0  0  0  0  0  0  0
   -4.8739   -1.0579    1.9541 H   0  0  0  0  0  0  0  0  0  0  0  0
   -5.2146   -4.9041   -1.4637 H   0  0  0  0  0  0  0  0  0  0  0  0
   -0.7113   -3.8840   -1.8839 H   0  0  0  0  0  0  0  0  0  0  0  0
    2.8650   -2.8719   -1.9177 H   0  0  0  0  0  0  0  0  0  0  0  0
    1.4833   -2.8703   -3.0187 H   0  0  0  0  0  0  0  0  0  0  0  0
    1.6210   -4.1084   -1.6462 H   0  0  0  0  0  0  0  0  0  0  0  0
    0.6003    1.8280    0.5298 H   0  0  0  0  0  0  0  0  0  0  0  0
    0.9913    0.7977    1.9177 H   0  0  0  0  0  0  0  0  0  0  0  0
    2.2322    0.6810   -0.8216 H   0  0  0  0  0  0  0  0  0  0  0  0
    2.6898   -0.4418    0.4943 H   0  0  0  0  0  0  0  0  0  0  0  0
    2.7338    2.6437    0.3975 H   0  0  0  0  0  0  0  0  0  0  0  0
    3.0031    1.8296    1.9450 H   0  0  0  0  0  0  0  0  0  0  0  0
    5.0379    2.5635    0.9716 H   0  0  0  0  0  0  0  0  0  0  0  0
    4.7481    1.7778   -0.6008 H   0  0  0  0  0  0  0  0  0  0  0  0
    4.8829   -0.4900    0.5089 H   0  0  0  0  0  0  0  0  0  0  0  0
    5.2663    0.3125    2.0590 H   0  0  0  0  0  0  0  0  0  0  0  0
    7.2542   -0.5035    0.7420 H   0  0  0  0  0  0  0  0  0  0  0  0
    6.7691    0.7118   -0.5409 H   0  0  0  0  0  0  0  0  0  0  0  0
    9.3101    1.3616    0.1845 H   0  0  0  0  0  0  0  0  0  0  0  0
    9.5469    3.7041    0.8589 H   0  0  0  0  0  0  0  0  0  0  0  0
   -2.5473   -0.3203    0.9154 H   0  0  0  0  0  0  0  0  0  0  0  0
   -6.6908    0.6367    1.7490 H   0  0  0  0  0  0  0  0  0  0  0  0
  1  2  3  0
  2  3  1  0
  3  4  2  0
  4  5  1  0
  5  6  2  0
  6  7  1  0
  7  8  1  0
  8  9  1  0
  9 10  2  0
 10 11  1  0
 11 12  2  0
 12 13  1  0
 13 14  2  0
 14 15  1  0
 15 16  1  0
 16 17  1  0
 15 18  2  0
 18 19  1  0
 19 20  1  0
 20 21  1  0
 21 22  1  0
 22 23  1  0
 23 24  1  0
 24 25  1  0
 25 26  1  0
 26 27  2  0
 26 28  1  0
 28 29  1  0
 18 30  1  0
 30 31  2  0
  7 32  2  0
 32  3  1  0
 31  9  1  0
 31 13  1  0
  1 33  1  0
  4 34  1  0
  5 35  1  0
  6 36  1  0
  8 37  1  0
 11 38  1  0
 14 39  1  0
 17 40  1  0
 17 41  1  0
 17 42  1  0
 20 43  1  0
 20 44  1  0
 21 45  1  0
 21 46  1  0
 22 47  1  0
 22 48  1  0
 23 49  1  0
 23 50  1  0
 24 51  1  0
 24 52  1  0
 25 53  1  0
 25 54  1  0
 28 55  1  0
 29 56  1  0
 30 57  1  0
 32 58  1  0
M  END
$$$$
