@<TRIPOS>MOLECULE
*****
 58 60 0 0 0
SMALL
GASTEIGER

@<TRIPOS>ATOM
      1 C          -8.8087    3.3892    0.9313 C.1     1  UNL1       -0.1139
      2 C          -7.9359    2.6956    0.5072 C.1     1  UNL1       -0.0696
      3 C          -6.8902    1.8648   -0.0187 C.ar    1  UNL1        0.0264
      4 C          -6.4472    2.0921   -1.3023 C.ar    1  UNL1       -0.0462
      5 C          -5.4714    1.3134   -1.8794 C.ar    1  UNL1       -0.0589
      6 C          -4.9492    0.2803   -1.1065 C.ar    1  UNL1       -0.0404
      7 C          -5.3764    0.0341    0.1806 C.ar    1  UNL1        0.0335
      8 N          -4.8301   -1.0739    0.9337 N.pl3   1  UNL1       -0.2988
      9 C          -4.2597   -2.1178    0.1358 C.ar    1  UNL1        0.1340
     10 N          -5.0422   -3.1186   -0.3325 N.ar    1  UNL1       -0.2200
     11 C          -4.5619   -4.1018   -1.0947 C.ar    1  UNL1        0.1187
     12 N          -3.2423   -4.0784   -1.3997 N.ar    1  UNL1       -0.2352
     13 C          -2.4263   -3.1047   -0.9565 C.ar    1  UNL1        0.0797
     14 C          -1.1004   -3.0702   -1.2531 C.ar    1  UNL1        0.0098
     15 C          -0.2465   -2.1055   -0.8226 C.ar    1  UNL1        0.1636
     16 O           1.0790   -2.1225   -1.1554 O.3     1  UNL1       -0.4914
     17 C           1.7551   -3.0429   -1.9422 C.3     1  UNL1        0.0790
     18 C          -0.7629   -1.0683   -0.0128 C.ar    1  UNL1        0.1627
     19 O           0.0697   -0.1570    0.3898 O.3     1  UNL1       -0.4883
     20 C           0.8861    0.7521    0.7948 C.3     1  UNL1        0.0898
     21 C           2.3531    0.5659    0.2953 C.3     1  UNL1       -0.0186
     22 C           3.1351    1.6915    0.8565 C.3     1  UNL1       -0.0500
     23 C           4.6068    1.6756    0.4915 C.3     1  UNL1       -0.0525
     24 C           5.3033    0.4468    0.9505 C.3     1  UNL1       -0.0447
     25 C           6.7483    0.4783    0.5681 C.3     1  UNL1        0.0259
     26 C           7.4392    1.5892    1.2333 C.2     1  UNL1        0.2354
     27 O           6.9173    2.3179    2.1094 O.2     1  UNL1       -0.2737
     28 N           8.7996    1.9138    0.9015 N.am    1  UNL1       -0.1975
     29 O           9.4538    2.9302    1.4999 O.3     1  UNL1       -0.2952
     30 C          -2.1007   -1.0995    0.2891 C.ar    1  UNL1       -0.0038
     31 C          -2.9331   -2.0860   -0.1629 C.ar    1  UNL1        0.0441
     32 C          -6.3563    0.8357    0.7280 C.ar    1  UNL1       -0.0251
     33 H          -9.6007    4.0382    1.3263 H       1  UNL1        0.1232
     34 H          -6.9079    2.9204   -1.8459 H       1  UNL1        0.0630
     35 H          -5.1154    1.4809   -2.8849 H       1  UNL1        0.0619
     36 H          -4.1780   -0.3545   -1.5396 H       1  UNL1        0.0636
     37 H          -4.8739   -1.0579    1.9541 H       1  UNL1        0.1536
     38 H          -5.2146   -4.9041   -1.4637 H       1  UNL1        0.1048
     39 H          -0.7113   -3.8840   -1.8839 H       1  UNL1        0.0677
     40 H           2.8650   -2.8719   -1.9177 H       1  UNL1        0.0660
     41 H           1.4833   -2.8703   -3.0187 H       1  UNL1        0.0660
     42 H           1.6210   -4.1084   -1.6462 H       1  UNL1        0.0660
     43 H           0.6003    1.8280    0.5298 H       1  UNL1        0.0696
     44 H           0.9913    0.7977    1.9177 H       1  UNL1        0.0696
     45 H           2.2322    0.6810   -0.8216 H       1  UNL1        0.0298
     46 H           2.6898   -0.4418    0.4943 H       1  UNL1        0.0298
     47 H           2.7338    2.6437    0.3975 H       1  UNL1        0.0266
     48 H           3.0031    1.8296    1.9450 H       1  UNL1        0.0266
     49 H           5.0379    2.5635    0.9716 H       1  UNL1        0.0265
     50 H           4.7481    1.7778   -0.6008 H       1  UNL1        0.0265
     51 H           4.8829   -0.4900    0.5089 H       1  UNL1        0.0270
     52 H           5.2663    0.3125    2.0590 H       1  UNL1        0.0270
     53 H           7.2542   -0.5035    0.7420 H       1  UNL1        0.0359
     54 H           6.7691    0.7118   -0.5409 H       1  UNL1        0.0359
     55 H           9.3101    1.3616    0.1845 H       1  UNL1        0.1822
     56 H           9.5469    3.7041    0.8589 H       1  UNL1        0.2414
     57 H          -2.5473   -0.3203    0.9154 H       1  UNL1        0.0663
     58 H          -6.6908    0.6367    1.7490 H       1  UNL1        0.0648
@<TRIPOS>BOND
     1     1     2    3
     2     2     3    1
     3     3     4   ar
     4     4     5   ar
     5     5     6   ar
     6     6     7   ar
     7     7     8    1
     8     8     9    1
     9     9    10   ar
    10    10    11   ar
    11    11    12   ar
    12    12    13   ar
    13    13    14   ar
    14    14    15   ar
    15    15    16    1
    16    16    17    1
    17    15    18   ar
    18    18    19    1
    19    19    20    1
    20    20    21    1
    21    21    22    1
    22    22    23    1
    23    23    24    1
    24    24    25    1
    25    25    26    1
    26    26    27    2
    27    26    28   am
    28    28    29    1
    29    18    30   ar
    30    30    31   ar
    31     7    32   ar
    32    32     3   ar
    33    31     9   ar
    34    31    13   ar
    35     1    33    1
    36     4    34    1
    37     5    35    1
    38     6    36    1
    39     8    37    1
    40    11    38    1
    41    14    39    1
    42    17    40    1
    43    17    41    1
    44    17    42    1
    45    20    43    1
    46    20    44    1
    47    21    45    1
    48    21    46    1
    49    22    47    1
    50    22    48    1
    51    23    49    1
    52    23    50    1
    53    24    51    1
    54    24    52    1
    55    25    53    1
    56    25    54    1
    57    28    55    1
    58    29    56    1
    59    30    57    1
    60    32    58    1
