
     RDKit          3D

 46 49  0  0  0  0  0  0  0  0999 V2000
    5.9117   -0.8471    2.1296 N   0  0  0  0  0  0  0  0  0  0  0  0
    5.0379   -0.0484    1.3579 C   0  0  0  0  0  0  0  0  0  0  0  0
    3.8177   -0.3382    1.1618 N   0  0  0  0  0  0  0  0  0  0  0  0
    2.9611    0.5212    0.3584 C   0  0  1  0  0  0  0  0  0  0  0  0
    1.9181   -0.3761   -0.2044 C   0  0  0  0  0  0  0  0  0  0  0  0
    0.5871   -0.1831    0.0425 C   0  0  0  0  0  0  0  0  0  0  0  0
   -0.4317   -1.0008   -0.4699 C   0  0  0  0  0  0  0  0  0  0  0  0
   -1.8074   -0.6966   -0.1412 N   0  0  0  0  0  0  0  0  0  0  0  0
   -2.9276   -1.3917   -0.5332 C   0  0  0  0  0  0  0  0  0  0  0  0
   -2.7615   -2.4475   -1.2629 O   0  0  0  0  0  0  0  0  0  0  0  0
   -4.3121   -1.0803   -0.2160 C   0  0  0  0  0  0  0  0  0  0  0  0
   -5.1664   -2.1730   -0.2329 N   0  0  0  0  0  0  0  0  0  0  0  0
   -6.4658   -2.0292   -0.0390 C   0  0  0  0  0  0  0  0  0  0  0  0
   -7.0474   -0.8122    0.1879 C   0  0  0  0  0  0  0  0  0  0  0  0
   -8.7854   -0.6281    0.4461 Cl  0  0  0  0  0  0  0  0  0  0  0  0
   -6.2148    0.2754    0.2072 C   0  0  0  0  0  0  0  0  0  0  0  0
   -4.8462    0.1595    0.0075 C   0  0  0  0  0  0  0  0  0  0  0  0
   -3.9919    1.3721    0.0537 C   0  0  0  0  0  0  0  0  0  0  0  0
   -3.4101    1.7087   -1.1408 O   0  0  0  0  0  0  0  0  0  0  0  0
   -0.0440   -2.0419   -1.2576 C   0  0  0  0  0  0  0  0  0  0  0  0
    1.3210   -2.2601   -1.5257 C   0  0  0  0  0  0  0  0  0  0  0  0
    2.2956   -1.4542   -1.0182 C   0  0  0  0  0  0  0  0  0  0  0  0
    3.6156   -1.6291   -1.2512 F   0  0  0  0  0  0  0  0  0  0  0  0
    2.3286    1.5035    1.2870 C   0  0  0  0  0  0  0  0  0  0  0  0
    3.2787    2.2822    1.9466 F   0  0  0  0  0  0  0  0  0  0  0  0
    1.7281    0.7688    2.3193 F   0  0  0  0  0  0  0  0  0  0  0  0
    3.6660    1.1575   -0.8019 C   0  0  1  0  0  0  0  0  0  0  0  0
    4.1418    2.5484   -0.7926 C   0  0  0  0  0  0  0  0  0  0  0  0
    5.1262    1.4171   -0.5663 C   0  0  1  0  0  0  0  0  0  0  0  0
    5.5120    1.1285    0.7660 O   0  0  0  0  0  0  0  0  0  0  0  0
    6.4497   -1.5982    1.6754 H   0  0  0  0  0  0  0  0  0  0  0  0
    6.0073   -0.6756    3.1406 H   0  0  0  0  0  0  0  0  0  0  0  0
    0.2289    0.6484    0.6692 H   0  0  0  0  0  0  0  0  0  0  0  0
   -1.9385    0.1288    0.4871 H   0  0  0  0  0  0  0  0  0  0  0  0
   -7.1262   -2.8992   -0.0550 H   0  0  0  0  0  0  0  0  0  0  0  0
   -6.6233    1.2820    0.3855 H   0  0  0  0  0  0  0  0  0  0  0  0
   -3.3671    1.5043    0.9270 H   0  0  0  0  0  0  0  0  0  0  0  0
   -4.7486    2.2564    0.2093 H   0  0  0  0  0  0  0  0  0  0  0  0
   -4.0243    1.4221   -1.8769 H   0  0  0  0  0  0  0  0  0  0  0  0
   -0.7504   -2.7312   -1.7035 H   0  0  0  0  0  0  0  0  0  0  0  0
    1.6077   -3.1006   -2.1595 H   0  0  0  0  0  0  0  0  0  0  0  0
    1.5381    2.1284    0.8438 H   0  0  0  0  0  0  0  0  0  0  0  0
    3.4847    0.7226   -1.8300 H   0  0  0  0  0  0  0  0  0  0  0  0
    4.0659    3.2449    0.0400 H   0  0  0  0  0  0  0  0  0  0  0  0
    4.2848    3.0612   -1.7675 H   0  0  0  0  0  0  0  0  0  0  0  0
    5.8763    1.2005   -1.3392 H   0  0  0  0  0  0  0  0  0  0  0  0
  1  2  1  0
  2  3  2  0
  3  4  1  0
  4  5  1  0
  5  6  2  0
  6  7  1  0
  7  8  1  0
  8  9  1  0
  9 10  2  0
  9 11  1  0
 11 12  2  0
 12 13  1  0
 13 14  2  0
 14 15  1  0
 14 16  1  0
 16 17  2  0
 17 18  1  0
 18 19  1  0
  7 20  2  0
 20 21  1  0
 21 22  2  0
 22 23  1  0
  4 24  1  1
 24 25  1  0
 24 26  1  0
  4 27  1  0
 27 28  1  0
 28 29  1  0
 29 30  1  0
 30  2  1  0
 22  5  1  0
 29 27  1  0
 17 11  1  0
  1 31  1  0
  1 32  1  0
  6 33  1  0
  8 34  1  0
 13 35  1  0
 16 36  1  0
 18 37  1  0
 18 38  1  0
 19 39  1  0
 20 40  1  0
 21 41  1  0
 24 42  1  0
 27 43  1  6
 28 44  1  0
 28 45  1  0
 29 46  1  6
M  END
$$$$
