@<TRIPOS>MOLECULE
*****
 46 49 0 0 0
SMALL
GASTEIGER

@<TRIPOS>ATOM
      1 N           5.9117   -0.8471    2.1296 N.pl3   1  UNL1       -0.3134
      2 C           5.0379   -0.0484    1.3579 C.2     1  UNL1        0.2764
      3 N           3.8177   -0.3382    1.1618 N.2     1  UNL1       -0.2194
      4 C           2.9611    0.5212    0.3584 C.3     1  UNL1        0.1603
      5 C           1.9181   -0.3761   -0.2044 C.ar    1  UNL1        0.0228
      6 C           0.5871   -0.1831    0.0425 C.ar    1  UNL1       -0.0321
      7 C          -0.4317   -1.0008   -0.4699 C.ar    1  UNL1        0.0342
      8 N          -1.8074   -0.6966   -0.1412 N.am    1  UNL1       -0.2802
      9 C          -2.9276   -1.3917   -0.5332 C.2     1  UNL1        0.2669
     10 O          -2.7615   -2.4475   -1.2629 O.2     1  UNL1       -0.2682
     11 C          -4.3121   -1.0803   -0.2160 C.ar    1  UNL1        0.1311
     12 N          -5.1664   -2.1730   -0.2329 N.ar    1  UNL1       -0.2486
     13 C          -6.4658   -2.0292   -0.0390 C.ar    1  UNL1        0.0467
     14 C          -7.0474   -0.8122    0.1879 C.ar    1  UNL1        0.0594
     15 CL         -8.7854   -0.6281    0.4461 Cl      1  UNL1       -0.0820
     16 C          -6.2148    0.2754    0.2072 C.ar    1  UNL1       -0.0344
     17 C          -4.8462    0.1595    0.0075 C.ar    1  UNL1        0.0097
     18 C          -3.9919    1.3721    0.0537 C.3     1  UNL1        0.0714
     19 O          -3.4101    1.7087   -1.1408 O.3     1  UNL1       -0.3903
     20 C          -0.0440   -2.0419   -1.2576 C.ar    1  UNL1       -0.0377
     21 C           1.3210   -2.2601   -1.5257 C.ar    1  UNL1       -0.0243
     22 C           2.2956   -1.4542   -1.0182 C.ar    1  UNL1        0.1292
     23 F           3.6156   -1.6291   -1.2512 F       1  UNL1       -0.2051
     24 C           2.3286    1.5035    1.2870 C.3     1  UNL1        0.2686
     25 F           3.2787    2.2822    1.9466 F       1  UNL1       -0.2062
     26 F           1.7281    0.7688    2.3193 F       1  UNL1       -0.2062
     27 C           3.6660    1.1575   -0.8019 C.3     1  UNL1        0.0344
     28 C           4.1418    2.5484   -0.7926 C.3     1  UNL1       -0.0064
     29 C           5.1262    1.4171   -0.5663 C.3     1  UNL1        0.1091
     30 O           5.5120    1.1285    0.7660 O.2     1  UNL1       -0.4622
     31 H           6.4497   -1.5982    1.6754 H       1  UNL1        0.1466
     32 H           6.0073   -0.6756    3.1406 H       1  UNL1        0.1466
     33 H           0.2289    0.6484    0.6692 H       1  UNL1        0.0640
     34 H          -1.9385    0.1288    0.4871 H       1  UNL1        0.1552
     35 H          -7.1262   -2.8992   -0.0550 H       1  UNL1        0.0844
     36 H          -6.6233    1.2820    0.3855 H       1  UNL1        0.0637
     37 H          -3.3671    1.5043    0.9270 H       1  UNL1        0.0608
     38 H          -4.7486    2.2564    0.2093 H       1  UNL1        0.0608
     39 H          -4.0243    1.4221   -1.8769 H       1  UNL1        0.2098
     40 H          -0.7504   -2.7312   -1.7035 H       1  UNL1        0.0637
     41 H           1.6077   -3.1006   -2.1595 H       1  UNL1        0.0647
     42 H           1.5381    2.1284    0.8438 H       1  UNL1        0.1047
     43 H           3.4847    0.7226   -1.8300 H       1  UNL1        0.0366
     44 H           4.0659    3.2449    0.0400 H       1  UNL1        0.0306
     45 H           4.2848    3.0612   -1.7675 H       1  UNL1        0.0306
     46 H           5.8763    1.2005   -1.3392 H       1  UNL1        0.0737
@<TRIPOS>BOND
     1     1     2    1
     2     2     3    2
     3     3     4    1
     4     4     5    1
     5     5     6   ar
     6     6     7   ar
     7     7     8    1
     8     8     9   am
     9     9    10    2
    10     9    11    1
    11    11    12   ar
    12    12    13   ar
    13    13    14   ar
    14    14    15    1
    15    14    16   ar
    16    16    17   ar
    17    17    18    1
    18    18    19    1
    19     7    20   ar
    20    20    21   ar
    21    21    22   ar
    22    22    23    1
    23     4    24    1
    24    24    25    1
    25    24    26    1
    26     4    27    1
    27    27    28    1
    28    28    29    1
    29    29    30    1
    30    30     2    1
    31    22     5   ar
    32    29    27    1
    33    17    11   ar
    34     1    31    1
    35     1    32    1
    36     6    33    1
    37     8    34    1
    38    13    35    1
    39    16    36    1
    40    18    37    1
    41    18    38    1
    42    19    39    1
    43    20    40    1
    44    21    41    1
    45    24    42    1
    46    27    43    1
    47    28    44    1
    48    28    45    1
    49    29    46    1
