@<TRIPOS>MOLECULE
*****
 58 62 0 0 0
SMALL
GASTEIGER

@<TRIPOS>ATOM
      1 O          -2.8040   -0.6936    2.0024 O.2     1  UNL1       -0.2755
      2 C          -2.5672   -0.1624    0.8990 C.2     1  UNL1        0.2175
      3 C          -3.7065    0.3540    0.0774 C.3     1  UNL1        0.0283
      4 C          -4.9868    0.1217    0.8159 C.3     1  UNL1       -0.0166
      5 C          -6.1760    0.6094    0.0810 C.ar    1  UNL1       -0.0075
      6 CA         -6.6417    1.8916   -0.0387 C.ar    1  UNL1        0.1284
      7 C          -6.0908    3.0925    0.5541 C.2     1  UNL1        0.3536
      8 O          -5.0734    3.0379    1.2727 O.2     1  UNL1       -0.2435
      9 OXT        -6.6786    4.3314    0.3388 O.3     1  UNL1       -0.4761
     10 N          -7.7500    1.8384   -0.8270 N.ar    1  UNL1       -0.3488
     11 C          -7.9942    0.5882   -1.2007 C.ar    1  UNL1        0.0473
     12 C          -9.0052    0.0494   -1.9980 C.ar    1  UNL1       -0.0378
     13 C          -8.9815   -1.3145   -2.2010 C.ar    1  UNL1       -0.0598
     14 C          -8.0014   -2.1055   -1.6396 C.ar    1  UNL1       -0.0611
     15 C          -7.0150   -1.5753   -0.8611 C.ar    1  UNL1       -0.0523
     16 C          -7.0251   -0.2024   -0.6470 C.ar    1  UNL1        0.0037
     17 N          -1.2316   -0.0663    0.4632 N.am    1  UNL1       -0.2855
     18 C          -0.0676   -0.5088    1.1321 C.ar    1  UNL1        0.0339
     19 C          -0.0867   -1.1469    2.3369 C.ar    1  UNL1       -0.0404
     20 C           1.1298   -1.5409    2.9278 C.ar    1  UNL1       -0.0595
     21 C           2.3211   -1.2753    2.2789 C.ar    1  UNL1       -0.0545
     22 C           2.3747   -0.6352    1.0661 C.ar    1  UNL1       -0.0232
     23 C           3.6177   -0.3340    0.3549 C.2     1  UNL1       -0.0525
     24 C           4.8213   -0.6220    0.7692 C.2     1  UNL1       -0.0357
     25 C           6.0602   -0.3236    0.0643 C.ar    1  UNL1        0.0646
     26 C           6.0967    0.3081   -1.1473 C.ar    1  UNL1       -0.0357
     27 C           7.2805    0.5907   -1.8115 C.ar    1  UNL1       -0.0506
     28 C           8.4534    0.2029   -1.1928 C.ar    1  UNL1        0.0005
     29 C           9.6721    0.4621   -1.8156 C.ar    1  UNL1       -0.0512
     30 C          10.8619    0.0947   -1.2373 C.ar    1  UNL1       -0.0427
     31 C          10.8360   -0.5457   -0.0101 C.ar    1  UNL1        0.0430
     32 CL         12.3084   -1.0448    0.7900 Cl      1  UNL1       -0.0835
     33 C           9.6243   -0.7961    0.5949 C.ar    1  UNL1       -0.0174
     34 C           8.4191   -0.4346    0.0296 C.ar    1  UNL1        0.0730
     35 N           7.2384   -0.6743    0.6114 N.ar    1  UNL1       -0.2472
     36 C           1.1758   -0.2622    0.5125 C.ar    1  UNL1       -0.0333
     37 H          -3.7788   -0.1895   -0.8898 H       1  UNL1        0.0362
     38 H          -3.4913    1.3966   -0.1732 H       1  UNL1        0.0362
     39 H          -5.0933   -0.9454    1.0258 H       1  UNL1        0.0319
     40 H          -4.9437    0.7065    1.7689 H       1  UNL1        0.0319
     41 HXT        -6.3658    5.1452    0.8676 H       1  UNL1        0.2955
     42 H          -8.3034    2.6917   -1.0785 H       1  UNL1        0.1661
     43 H          -9.7625    0.6871   -2.4273 H       1  UNL1        0.0638
     44 H          -9.7553   -1.7929   -2.8213 H       1  UNL1        0.0618
     45 H          -7.9800   -3.1818   -1.7977 H       1  UNL1        0.0618
     46 H          -6.2300   -2.1798   -0.4068 H       1  UNL1        0.0624
     47 H          -1.1213    0.4057   -0.4990 H       1  UNL1        0.1548
     48 H          -1.0062   -1.3589    2.8465 H       1  UNL1        0.0636
     49 H           1.0807   -2.0470    3.8879 H       1  UNL1        0.0618
     50 H           3.2525   -1.5848    2.7459 H       1  UNL1        0.0623
     51 H           3.5449    0.1732   -0.6025 H       1  UNL1        0.0624
     52 H           4.8709   -1.1385    1.7467 H       1  UNL1        0.0639
     53 H           5.1823    0.6117   -1.6330 H       1  UNL1        0.0639
     54 H           7.2906    1.0936   -2.7745 H       1  UNL1        0.0625
     55 H           9.6552    0.9662   -2.7773 H       1  UNL1        0.0625
     56 H          11.8002    0.2918   -1.7119 H       1  UNL1        0.0632
     57 H           9.5518   -1.3023    1.5705 H       1  UNL1        0.0653
     58 H           1.1946    0.2431   -0.4423 H       1  UNL1        0.0642
@<TRIPOS>BOND
     1     1     2    2
     2     2     3    1
     3     3     4    1
     4     4     5    1
     5     5     6   ar
     6     6     7    1
     7     7     8    2
     8     7     9    1
     9     6    10   ar
    10    10    11   ar
    11    11    12   ar
    12    12    13   ar
    13    13    14   ar
    14    14    15   ar
    15    15    16   ar
    16     2    17   am
    17    17    18    1
    18    18    19   ar
    19    19    20   ar
    20    20    21   ar
    21    21    22   ar
    22    22    23    1
    23    23    24    2
    24    24    25    1
    25    25    26   ar
    26    26    27   ar
    27    27    28   ar
    28    28    29   ar
    29    29    30   ar
    30    30    31   ar
    31    31    32    1
    32    31    33   ar
    33    33    34   ar
    34    34    35   ar
    35    22    36   ar
    36    16     5   ar
    37    36    18   ar
    38    16    11   ar
    39    35    25   ar
    40    34    28   ar
    41     3    37    1
    42     3    38    1
    43     4    39    1
    44     4    40    1
    45     9    41    1
    46    10    42    1
    47    12    43    1
    48    13    44    1
    49    14    45    1
    50    15    46    1
    51    17    47    1
    52    19    48    1
    53    20    49    1
    54    21    50    1
    55    23    51    1
    56    24    52    1
    57    26    53    1
    58    27    54    1
    59    29    55    1
    60    30    56    1
    61    33    57    1
    62    36    58    1
