
     RDKit          3D

110115  0  0  0  0  0  0  0  0999 V2000
    7.7792   -1.2000   -1.5648 C   0  0  0  0  0  0  0  0  0  0  0  0
    8.2840   -0.8623   -0.3028 O   0  0  0  0  0  0  0  0  0  0  0  0
    7.4677   -0.2862    0.6706 C   0  0  0  0  0  0  0  0  0  0  0  0
    6.1198   -0.0497    0.3600 C   0  0  0  0  0  0  0  0  0  0  0  0
    5.2728    0.5057    1.2580 C   0  0  0  0  0  0  0  0  0  0  0  0
    3.9215    0.7556    0.9841 N   0  0  0  0  0  0  0  0  0  0  0  0
    3.1748    0.0812   -0.0013 C   0  0  0  0  0  0  0  0  0  0  0  0
    1.8708    0.5546   -0.2280 C   0  0  0  0  0  0  0  0  0  0  0  0
    1.0530   -0.0414   -1.1434 C   0  0  0  0  0  0  0  0  0  0  0  0
   -0.1973    0.3539   -1.4140 O   0  0  0  0  0  0  0  0  0  0  0  0
   -1.3743   -0.2609   -1.1919 C   0  0  0  0  0  0  0  0  0  0  0  0
   -2.1029   -0.5931   -2.3527 C   0  0  0  0  0  0  0  0  0  0  0  0
   -3.3174   -1.2185   -2.2661 C   0  0  0  0  0  0  0  0  0  0  0  0
   -3.8968   -1.5575   -1.0700 C   0  0  0  0  0  0  0  0  0  0  0  0
   -5.1663   -2.1849   -0.9578 N   0  0  0  0  0  0  0  0  0  0  0  0
   -6.3438   -1.3802   -0.8834 C   0  0  0  0  0  0  0  0  0  0  0  0
   -6.1809   -0.1291   -0.9316 O   0  0  0  0  0  0  0  0  0  0  0  0
   -7.6640   -1.8610   -0.7614 N   0  0  0  0  0  0  0  0  0  0  0  0
   -8.7912   -1.0013   -0.7006 C   0  0  0  0  0  0  0  0  0  0  0  0
   -9.2133   -0.5268    0.5125 C   0  0  0  0  0  0  0  0  0  0  0  0
  -10.3046    0.3278    0.6315 C   0  0  0  0  0  0  0  0  0  0  0  0
  -10.7339    0.8275    1.9710 C   0  0  0  0  0  0  0  0  0  0  0  0
  -11.9100    1.7699    1.8476 C   0  0  0  0  0  0  0  0  0  0  0  0
   -9.5868    1.4215    2.7426 C   0  0  0  0  0  0  0  0  0  0  0  0
  -11.2407   -0.3751    2.7656 C   0  0  0  0  0  0  0  0  0  0  0  0
  -10.9778    0.7037   -0.5129 C   0  0  0  0  0  0  0  0  0  0  0  0
  -10.5772    0.2431   -1.7439 C   0  0  0  0  0  0  0  0  0  0  0  0
  -11.2360    0.5965   -2.9487 N   0  0  0  0  0  0  0  0  0  0  0  0
  -12.4453    1.8189   -2.8973 S   0  0  0  0  0  6  0  0  0  0  0  0
  -11.6854    3.3438   -2.3501 C   0  0  0  0  0  0  0  0  0  0  0  0
  -13.0314    2.0233   -4.2710 O   0  0  0  0  0  0  0  0  0  0  0  0
  -13.5870    1.4564   -1.9944 O   0  0  0  0  0  0  0  0  0  0  0  0
   -9.4719   -0.6178   -1.8289 C   0  0  0  0  0  0  0  0  0  0  0  0
   -9.0280   -1.1113   -3.0492 O   0  0  0  0  0  0  0  0  0  0  0  0
   -9.5509   -2.3461   -3.5651 C   0  0  0  0  0  0  0  0  0  0  0  0
   -3.1941   -1.2381    0.0665 C   0  0  0  0  0  0  0  0  0  0  0  0
   -3.7395   -1.5515    1.2875 C   0  0  0  0  0  0  0  0  0  0  0  0
   -3.0845   -1.2464    2.4601 C   0  0  0  0  0  0  0  0  0  0  0  0
   -1.8524   -0.6109    2.4050 C   0  0  0  0  0  0  0  0  0  0  0  0
   -1.2948   -0.2913    1.1740 C   0  0  0  0  0  0  0  0  0  0  0  0
   -1.9485   -0.5974    0.0009 C   0  0  0  0  0  0  0  0  0  0  0  0
    1.5864   -1.1386   -1.8327 C   0  0  0  0  0  0  0  0  0  0  0  0
    2.8611   -1.6044   -1.6139 C   0  0  0  0  0  0  0  0  0  0  0  0
    3.6043   -0.9793   -0.7102 N   0  0  0  0  0  0  0  0  0  0  0  0
    5.8166    0.8295    2.5118 C   0  0  0  0  0  0  0  0  0  0  0  0
    7.1356    0.5941    2.8053 C   0  0  0  0  0  0  0  0  0  0  0  0
    8.0225    0.0195    1.8819 C   0  0  0  0  0  0  0  0  0  0  0  0
    9.3838   -0.1627    2.2835 C   0  0  0  0  0  0  0  0  0  0  0  0
    9.7050    0.1791    3.4738 O   0  0  0  0  0  0  0  0  0  0  0  0
   10.4472   -0.6869    1.5105 N   0  0  0  0  0  0  0  0  0  0  0  0
   11.7915   -0.8203    2.0421 C   0  0  1  0  0  0  0  0  0  0  0  0
   12.4902   -2.0756    1.6467 C   0  0  0  0  0  0  0  0  0  0  0  0
   12.6000    0.4213    1.7543 C   0  0  0  0  0  0  0  0  0  0  0  0
   12.7685    0.7824    0.4201 N   0  0  0  0  0  0  0  0  0  0  0  0
   11.6784    1.3261   -0.3204 C   0  0  0  0  0  0  0  0  0  0  0  0
   11.9389    0.9528   -1.7870 C   0  0  0  0  0  0  0  0  0  0  0  0
   13.3034    1.1056   -2.0627 O   0  0  0  0  0  0  0  0  0  0  0  0
   13.9023    2.0512   -1.2360 C   0  0  0  0  0  0  0  0  0  0  0  0
   13.9342    1.6074    0.2290 C   0  0  0  0  0  0  0  0  0  0  0  0
    7.5085   -0.2604   -2.1145 H   0  0  0  0  0  0  0  0  0  0  0  0
    8.5734   -1.7534   -2.1072 H   0  0  0  0  0  0  0  0  0  0  0  0
    6.8888   -1.8710   -1.5099 H   0  0  0  0  0  0  0  0  0  0  0  0
    5.8112   -0.3284   -0.6263 H   0  0  0  0  0  0  0  0  0  0  0  0
    3.4700    1.5113    1.5834 H   0  0  0  0  0  0  0  0  0  0  0  0
    1.5119    1.4179    0.3367 H   0  0  0  0  0  0  0  0  0  0  0  0
   -1.6693   -0.3373   -3.3023 H   0  0  0  0  0  0  0  0  0  0  0  0
   -3.8973   -1.4843   -3.1618 H   0  0  0  0  0  0  0  0  0  0  0  0
   -5.2837   -3.2185   -0.9265 H   0  0  0  0  0  0  0  0  0  0  0  0
   -7.7987   -2.8905   -0.7155 H   0  0  0  0  0  0  0  0  0  0  0  0
   -8.7063   -0.8049    1.4196 H   0  0  0  0  0  0  0  0  0  0  0  0
  -12.7359    1.2051    1.3731 H   0  0  0  0  0  0  0  0  0  0  0  0
  -11.6517    2.6089    1.1416 H   0  0  0  0  0  0  0  0  0  0  0  0
  -12.2217    2.1727    2.8282 H   0  0  0  0  0  0  0  0  0  0  0  0
   -9.2774    0.7797    3.5941 H   0  0  0  0  0  0  0  0  0  0  0  0
   -8.6770    1.5717    2.0978 H   0  0  0  0  0  0  0  0  0  0  0  0
   -9.8858    2.4028    3.1293 H   0  0  0  0  0  0  0  0  0  0  0  0
  -11.8705   -1.0096    2.1088 H   0  0  0  0  0  0  0  0  0  0  0  0
  -10.3975   -0.9388    3.1640 H   0  0  0  0  0  0  0  0  0  0  0  0
  -11.8181    0.0356    3.6080 H   0  0  0  0  0  0  0  0  0  0  0  0
  -11.8355    1.3670   -0.4516 H   0  0  0  0  0  0  0  0  0  0  0  0
  -11.0111    0.1448   -3.8442 H   0  0  0  0  0  0  0  0  0  0  0  0
  -10.7982    3.1049   -1.7202 H   0  0  0  0  0  0  0  0  0  0  0  0
  -12.4017    3.8858   -1.7143 H   0  0  0  0  0  0  0  0  0  0  0  0
  -11.3502    3.9402   -3.2259 H   0  0  0  0  0  0  0  0  0  0  0  0
   -9.5479   -3.0650   -2.6999 H   0  0  0  0  0  0  0  0  0  0  0  0
   -8.8762   -2.6724   -4.3820 H   0  0  0  0  0  0  0  0  0  0  0  0
  -10.5800   -2.2157   -3.9173 H   0  0  0  0  0  0  0  0  0  0  0  0
   -4.7062   -2.0500    1.3223 H   0  0  0  0  0  0  0  0  0  0  0  0
   -3.5278   -1.5006    3.4017 H   0  0  0  0  0  0  0  0  0  0  0  0
   -1.3607   -0.3830    3.3443 H   0  0  0  0  0  0  0  0  0  0  0  0
   -0.3529    0.2104    1.1622 H   0  0  0  0  0  0  0  0  0  0  0  0
    0.9547   -1.6130   -2.5513 H   0  0  0  0  0  0  0  0  0  0  0  0
    3.2774   -2.4496   -2.1433 H   0  0  0  0  0  0  0  0  0  0  0  0
    5.1700    1.2780    3.2631 H   0  0  0  0  0  0  0  0  0  0  0  0
    7.5030    0.8626    3.7864 H   0  0  0  0  0  0  0  0  0  0  0  0
   10.2485   -1.0085    0.5451 H   0  0  0  0  0  0  0  0  0  0  0  0
   11.7352   -0.8173    3.1893 H   0  0  0  0  0  0  0  0  0  0  0  0
   13.5316   -1.8559    1.2813 H   0  0  0  0  0  0  0  0  0  0  0  0
   12.6520   -2.7689    2.5242 H   0  0  0  0  0  0  0  0  0  0  0  0
   11.9199   -2.7000    0.9141 H   0  0  0  0  0  0  0  0  0  0  0  0
   12.1255    1.2823    2.3459 H   0  0  0  0  0  0  0  0  0  0  0  0
   13.6133    0.3502    2.2457 H   0  0  0  0  0  0  0  0  0  0  0  0
   11.8230    2.4601   -0.2925 H   0  0  0  0  0  0  0  0  0  0  0  0
   10.6743    1.1346    0.0135 H   0  0  0  0  0  0  0  0  0  0  0  0
   11.2858    1.5181   -2.4627 H   0  0  0  0  0  0  0  0  0  0  0  0
   11.7101   -0.1264   -1.8820 H   0  0  0  0  0  0  0  0  0  0  0  0
   13.4545    3.0700   -1.3460 H   0  0  0  0  0  0  0  0  0  0  0  0
   14.9614    2.1231   -1.5657 H   0  0  0  0  0  0  0  0  0  0  0  0
   14.8837    1.1065    0.4786 H   0  0  0  0  0  0  0  0  0  0  0  0
   13.7666    2.5325    0.8562 H   0  0  0  0  0  0  0  0  0  0  0  0
  1  2  1  0
  2  3  1  0
  3  4  2  0
  4  5  1  0
  5  6  1  0
  6  7  1  0
  7  8  2  0
  8  9  1  0
  9 10  1  0
 10 11  1  0
 11 12  2  0
 12 13  1  0
 13 14  2  0
 14 15  1  0
 15 16  1  0
 16 17  2  0
 16 18  1  0
 18 19  1  0
 19 20  2  0
 20 21  1  0
 21 22  1  0
 22 23  1  0
 22 24  1  0
 22 25  1  0
 21 26  2  0
 26 27  1  0
 27 28  1  0
 28 29  1  0
 29 30  1  0
 29 31  2  0
 29 32  2  0
 27 33  2  0
 33 34  1  0
 34 35  1  0
 14 36  1  0
 36 37  2  0
 37 38  1  0
 38 39  2  0
 39 40  1  0
 40 41  2  0
  9 42  2  0
 42 43  1  0
 43 44  2  0
  5 45  2  0
 45 46  1  0
 46 47  2  0
 47 48  1  0
 48 49  2  0
 48 50  1  0
 50 51  1  0
 51 52  1  0
 51 53  1  0
 53 54  1  0
 54 55  1  0
 55 56  1  0
 56 57  1  0
 57 58  1  0
 58 59  1  0
 47  3  1  0
 59 54  1  0
 44  7  1  0
 41 11  1  0
 33 19  1  0
 41 36  1  0
  1 60  1  0
  1 61  1  0
  1 62  1  0
  4 63  1  0
  6 64  1  0
  8 65  1  0
 12 66  1  0
 13 67  1  0
 15 68  1  0
 18 69  1  0
 20 70  1  0
 23 71  1  0
 23 72  1  0
 23 73  1  0
 24 74  1  0
 24 75  1  0
 24 76  1  0
 25 77  1  0
 25 78  1  0
 25 79  1  0
 26 80  1  0
 28 81  1  0
 30 82  1  0
 30 83  1  0
 30 84  1  0
 35 85  1  0
 35 86  1  0
 35 87  1  0
 37 88  1  0
 38 89  1  0
 39 90  1  0
 40 91  1  0
 42 92  1  0
 43 93  1  0
 45 94  1  0
 46 95  1  0
 50 96  1  0
 51 97  1  1
 52 98  1  0
 52 99  1  0
 52100  1  0
 53101  1  0
 53102  1  0
 55103  1  0
 55104  1  0
 56105  1  0
 56106  1  0
 58107  1  0
 58108  1  0
 59109  1  0
 59110  1  0
M  END
$$$$
