@<TRIPOS>MOLECULE
*****
 110 115 0 0 0
SMALL
GASTEIGER

@<TRIPOS>ATOM
      1 C           7.7792   -1.2000   -1.5648 C.3     1  UNL1        0.0788
      2 O           8.2840   -0.8623   -0.3028 O.3     1  UNL1       -0.4943
      3 C           7.4677   -0.2862    0.6706 C.ar    1  UNL1        0.1339
      4 C           6.1198   -0.0497    0.3600 C.ar    1  UNL1        0.0020
      5 C           5.2728    0.5057    1.2580 C.ar    1  UNL1        0.0359
      6 N           3.9215    0.7556    0.9841 N.pl3   1  UNL1       -0.2992
      7 C           3.1748    0.0812   -0.0013 C.ar    1  UNL1        0.1264
      8 C           1.8708    0.5546   -0.2280 C.ar    1  UNL1        0.0208
      9 C           1.0530   -0.0414   -1.1434 C.ar    1  UNL1        0.1332
     10 O          -0.1973    0.3539   -1.4140 O.3     1  UNL1       -0.4553
     11 C          -1.3743   -0.2609   -1.1919 C.ar    1  UNL1        0.1362
     12 C          -2.1029   -0.5931   -2.3527 C.ar    1  UNL1       -0.0170
     13 C          -3.3174   -1.2185   -2.2661 C.ar    1  UNL1       -0.0364
     14 C          -3.8968   -1.5575   -1.0700 C.ar    1  UNL1        0.0427
     15 N          -5.1663   -2.1849   -0.9578 N.am    1  UNL1       -0.2686
     16 C          -6.3438   -1.3802   -0.8834 C.2     1  UNL1        0.3082
     17 O          -6.1809   -0.1291   -0.9316 O.2     1  UNL1       -0.2521
     18 N          -7.6640   -1.8610   -0.7614 N.am    1  UNL1       -0.2660
     19 C          -8.7912   -1.0013   -0.7006 C.ar    1  UNL1        0.0789
     20 C          -9.2133   -0.5268    0.5125 C.ar    1  UNL1       -0.0330
     21 C         -10.3046    0.3278    0.6315 C.ar    1  UNL1       -0.0382
     22 C         -10.7339    0.8275    1.9710 C.3     1  UNL1       -0.0126
     23 C         -11.9100    1.7699    1.8476 C.3     1  UNL1       -0.0560
     24 C          -9.5868    1.4215    2.7426 C.3     1  UNL1       -0.0560
     25 C         -11.2407   -0.3751    2.7656 C.3     1  UNL1       -0.0560
     26 C         -10.9778    0.7037   -0.5129 C.ar    1  UNL1       -0.0320
     27 C         -10.5772    0.2431   -1.7439 C.ar    1  UNL1        0.0913
     28 N         -11.2360    0.5965   -2.9487 N.pl3   1  UNL1       -0.2173
     29 S         -12.4453    1.8189   -2.8973 S.O2    1  UNL1        0.0404
     30 C         -11.6854    3.3438   -2.3501 C.3     1  UNL1        0.0736
     31 O         -13.0314    2.0233   -4.2710 O.2     1  UNL1       -0.1555
     32 O         -13.5870    1.4564   -1.9944 O.2     1  UNL1       -0.1555
     33 C          -9.4719   -0.6178   -1.8289 C.ar    1  UNL1        0.1634
     34 O          -9.0280   -1.1113   -3.0492 O.3     1  UNL1       -0.4914
     35 C          -9.5509   -2.3461   -3.5651 C.3     1  UNL1        0.0790
     36 C          -3.1941   -1.2381    0.0665 C.ar    1  UNL1        0.0069
     37 C          -3.7395   -1.5515    1.2875 C.ar    1  UNL1       -0.0521
     38 C          -3.0845   -1.2464    2.4601 C.ar    1  UNL1       -0.0611
     39 C          -1.8524   -0.6109    2.4050 C.ar    1  UNL1       -0.0611
     40 C          -1.2948   -0.2913    1.1740 C.ar    1  UNL1       -0.0505
     41 C          -1.9485   -0.5974    0.0009 C.ar    1  UNL1        0.0262
     42 C           1.5864   -1.1386   -1.8327 C.ar    1  UNL1       -0.0011
     43 C           2.8611   -1.6044   -1.6139 C.ar    1  UNL1        0.0332
     44 N           3.6043   -0.9793   -0.7102 N.ar    1  UNL1       -0.2400
     45 C           5.8166    0.8295    2.5118 C.ar    1  UNL1       -0.0396
     46 C           7.1356    0.5941    2.8053 C.ar    1  UNL1       -0.0443
     47 C           8.0225    0.0195    1.8819 C.ar    1  UNL1        0.0784
     48 C           9.3838   -0.1627    2.2835 C.2     1  UNL1        0.2479
     49 O           9.7050    0.1791    3.4738 O.2     1  UNL1       -0.2701
     50 N          10.4472   -0.6869    1.5105 N.am    1  UNL1       -0.3074
     51 C          11.7915   -0.8203    2.0421 C.3     1  UNL1        0.0333
     52 C          12.4902   -2.0756    1.6467 C.3     1  UNL1       -0.0454
     53 C          12.6000    0.4213    1.7543 C.3     1  UNL1        0.0172
     54 N          12.7685    0.7824    0.4201 N.3     1  UNL1       -0.2963
     55 C          11.6784    1.3261   -0.3204 C.3     1  UNL1        0.0225
     56 C          11.9389    0.9528   -1.7870 C.3     1  UNL1        0.0604
     57 O          13.3034    1.1056   -2.0627 O.3     1  UNL1       -0.3772
     58 C          13.9023    2.0512   -1.2360 C.3     1  UNL1        0.0604
     59 C          13.9342    1.6074    0.2290 C.3     1  UNL1        0.0225
     60 H           7.5085   -0.2604   -2.1145 H       1  UNL1        0.0660
     61 H           8.5734   -1.7534   -2.1072 H       1  UNL1        0.0660
     62 H           6.8888   -1.8710   -1.5099 H       1  UNL1        0.0660
     63 H           5.8112   -0.3284   -0.6263 H       1  UNL1        0.0673
     64 H           3.4700    1.5113    1.5834 H       1  UNL1        0.1536
     65 H           1.5119    1.4179    0.3367 H       1  UNL1        0.0689
     66 H          -1.6693   -0.3373   -3.3023 H       1  UNL1        0.0655
     67 H          -3.8973   -1.4843   -3.1618 H       1  UNL1        0.0637
     68 H          -5.2837   -3.2185   -0.9265 H       1  UNL1        0.1564
     69 H          -7.7987   -2.8905   -0.7155 H       1  UNL1        0.1565
     70 H          -8.7063   -0.8049    1.4196 H       1  UNL1        0.0640
     71 H         -12.7359    1.2051    1.3731 H       1  UNL1        0.0238
     72 H         -11.6517    2.6089    1.1416 H       1  UNL1        0.0238
     73 H         -12.2217    2.1727    2.8282 H       1  UNL1        0.0238
     74 H          -9.2774    0.7797    3.5941 H       1  UNL1        0.0238
     75 H          -8.6770    1.5717    2.0978 H       1  UNL1        0.0238
     76 H          -9.8858    2.4028    3.1293 H       1  UNL1        0.0238
     77 H         -11.8705   -1.0096    2.1088 H       1  UNL1        0.0238
     78 H         -10.3975   -0.9388    3.1640 H       1  UNL1        0.0238
     79 H         -11.8181    0.0356    3.6080 H       1  UNL1        0.0238
     80 H         -11.8355    1.3670   -0.4516 H       1  UNL1        0.0641
     81 H         -11.0111    0.1448   -3.8442 H       1  UNL1        0.1734
     82 H         -10.7982    3.1049   -1.7202 H       1  UNL1        0.0482
     83 H         -12.4017    3.8858   -1.7143 H       1  UNL1        0.0482
     84 H         -11.3502    3.9402   -3.2259 H       1  UNL1        0.0482
     85 H          -9.5479   -3.0650   -2.6999 H       1  UNL1        0.0660
     86 H          -8.8762   -2.6724   -4.3820 H       1  UNL1        0.0660
     87 H         -10.5800   -2.2157   -3.9173 H       1  UNL1        0.0660
     88 H          -4.7062   -2.0500    1.3223 H       1  UNL1        0.0624
     89 H          -3.5278   -1.5006    3.4017 H       1  UNL1        0.0618
     90 H          -1.3607   -0.3830    3.3443 H       1  UNL1        0.0618
     91 H          -0.3529    0.2104    1.1622 H       1  UNL1        0.0625
     92 H           0.9547   -1.6130   -2.5513 H       1  UNL1        0.0669
     93 H           3.2774   -2.4496   -2.1433 H       1  UNL1        0.0831
     94 H           5.1700    1.2780    3.2631 H       1  UNL1        0.0636
     95 H           7.5030    0.8626    3.7864 H       1  UNL1        0.0627
     96 H          10.2485   -1.0085    0.5451 H       1  UNL1        0.1493
     97 H          11.7352   -0.8173    3.1893 H       1  UNL1        0.0508
     98 H          13.5316   -1.8559    1.2813 H       1  UNL1        0.0248
     99 H          12.6520   -2.7689    2.5242 H       1  UNL1        0.0248
    100 H          11.9199   -2.7000    0.9141 H       1  UNL1        0.0248
    101 H          12.1255    1.2823    2.3459 H       1  UNL1        0.0445
    102 H          13.6133    0.3502    2.2457 H       1  UNL1        0.0445
    103 H          11.8230    2.4601   -0.2925 H       1  UNL1        0.0449
    104 H          10.6743    1.1346    0.0135 H       1  UNL1        0.0449
    105 H          11.2858    1.5181   -2.4627 H       1  UNL1        0.0572
    106 H          11.7101   -0.1264   -1.8820 H       1  UNL1        0.0572
    107 H          13.4545    3.0700   -1.3460 H       1  UNL1        0.0572
    108 H          14.9614    2.1231   -1.5657 H       1  UNL1        0.0572
    109 H          14.8837    1.1065    0.4786 H       1  UNL1        0.0449
    110 H          13.7666    2.5325    0.8562 H       1  UNL1        0.0449
@<TRIPOS>BOND
     1     1     2    1
     2     2     3    1
     3     3     4   ar
     4     4     5   ar
     5     5     6    1
     6     6     7    1
     7     7     8   ar
     8     8     9   ar
     9     9    10    1
    10    10    11    1
    11    11    12   ar
    12    12    13   ar
    13    13    14   ar
    14    14    15    1
    15    15    16   am
    16    16    17    2
    17    16    18   am
    18    18    19    1
    19    19    20   ar
    20    20    21   ar
    21    21    22    1
    22    22    23    1
    23    22    24    1
    24    22    25    1
    25    21    26   ar
    26    26    27   ar
    27    27    28    1
    28    28    29    1
    29    29    30    1
    30    29    31    2
    31    29    32    2
    32    27    33   ar
    33    33    34    1
    34    34    35    1
    35    14    36   ar
    36    36    37   ar
    37    37    38   ar
    38    38    39   ar
    39    39    40   ar
    40    40    41   ar
    41     9    42   ar
    42    42    43   ar
    43    43    44   ar
    44     5    45   ar
    45    45    46   ar
    46    46    47   ar
    47    47    48    1
    48    48    49    2
    49    48    50   am
    50    50    51    1
    51    51    52    1
    52    51    53    1
    53    53    54    1
    54    54    55    1
    55    55    56    1
    56    56    57    1
    57    57    58    1
    58    58    59    1
    59    47     3   ar
    60    59    54    1
    61    44     7   ar
    62    41    11   ar
    63    33    19   ar
    64    41    36   ar
    65     1    60    1
    66     1    61    1
    67     1    62    1
    68     4    63    1
    69     6    64    1
    70     8    65    1
    71    12    66    1
    72    13    67    1
    73    15    68    1
    74    18    69    1
    75    20    70    1
    76    23    71    1
    77    23    72    1
    78    23    73    1
    79    24    74    1
    80    24    75    1
    81    24    76    1
    82    25    77    1
    83    25    78    1
    84    25    79    1
    85    26    80    1
    86    28    81    1
    87    30    82    1
    88    30    83    1
    89    30    84    1
    90    35    85    1
    91    35    86    1
    92    35    87    1
    93    37    88    1
    94    38    89    1
    95    39    90    1
    96    40    91    1
    97    42    92    1
    98    43    93    1
    99    45    94    1
   100    46    95    1
   101    50    96    1
   102    51    97    1
   103    52    98    1
   104    52    99    1
   105    52   100    1
   106    53   101    1
   107    53   102    1
   108    55   103    1
   109    55   104    1
   110    56   105    1
   111    56   106    1
   112    58   107    1
   113    58   108    1
   114    59   109    1
   115    59   110    1
