
     RDKit          3D

 44 46  0  0  0  0  0  0  0  0999 V2000
    8.0302    0.5174   -1.2316 N   0  0  0  0  0  0  0  0  0  0  0  0
    6.7959    0.1360   -0.6616 C   0  0  0  0  0  0  0  0  0  0  0  0
    5.6062    0.7126   -1.0215 C   0  0  0  0  0  0  0  0  0  0  0  0
    4.4107    0.3435   -0.4697 C   0  0  0  0  0  0  0  0  0  0  0  0
    4.4086   -0.6462    0.4838 C   0  0  0  0  0  0  0  0  0  0  0  0
    3.2678   -1.1079    1.1158 O   0  0  0  0  0  0  0  0  0  0  0  0
    1.9970   -0.6474    0.8812 C   0  0  0  0  0  0  0  0  0  0  0  0
    1.4181    0.3987    1.5676 C   0  0  0  0  0  0  0  0  0  0  0  0
    0.1375    0.8440    1.3135 C   0  0  0  0  0  0  0  0  0  0  0  0
   -0.6228    0.2379    0.3369 C   0  0  0  0  0  0  0  0  0  0  0  0
   -1.8937    0.6292    0.0366 O   0  0  0  0  0  0  0  0  0  0  0  0
   -2.6093    1.6605    0.6369 C   0  0  0  0  0  0  0  0  0  0  0  0
   -3.9753    1.7404   -0.0090 C   0  0  0  0  0  0  0  0  0  0  0  0
   -4.6761    0.4986    0.1704 N   0  0  0  0  0  0  0  0  0  0  0  0
   -5.9950    0.5364   -0.4317 C   0  0  0  0  0  0  0  0  0  0  0  0
   -6.3629   -0.9261   -0.4516 C   0  0  0  0  0  0  0  0  0  0  0  0
   -5.0897   -1.6232   -0.8180 C   0  0  0  0  0  0  0  0  0  0  0  0
   -4.0110   -0.6403   -0.4111 C   0  0  0  0  0  0  0  0  0  0  0  0
   -0.0572   -0.8084   -0.3567 C   0  0  0  0  0  0  0  0  0  0  0  0
    1.2240   -1.2546   -0.1032 C   0  0  0  0  0  0  0  0  0  0  0  0
    5.6075   -1.2517    0.8700 C   0  0  0  0  0  0  0  0  0  0  0  0
    6.7863   -0.8538    0.2932 C   0  0  0  0  0  0  0  0  0  0  0  0
    8.0740    0.8513   -2.2071 H   0  0  0  0  0  0  0  0  0  0  0  0
    8.9001    0.4643   -0.6737 H   0  0  0  0  0  0  0  0  0  0  0  0
    5.6096    1.4913   -1.7720 H   0  0  0  0  0  0  0  0  0  0  0  0
    3.4629    0.7941   -0.7480 H   0  0  0  0  0  0  0  0  0  0  0  0
    2.0329    0.8755    2.3447 H   0  0  0  0  0  0  0  0  0  0  0  0
   -0.2564    1.6864    1.9044 H   0  0  0  0  0  0  0  0  0  0  0  0
   -2.0664    2.6167    0.5519 H   0  0  0  0  0  0  0  0  0  0  0  0
   -2.7771    1.4940    1.7344 H   0  0  0  0  0  0  0  0  0  0  0  0
   -3.7790    1.8874   -1.1102 H   0  0  0  0  0  0  0  0  0  0  0  0
   -4.5798    2.5533    0.3908 H   0  0  0  0  0  0  0  0  0  0  0  0
   -5.9741    0.9197   -1.4715 H   0  0  0  0  0  0  0  0  0  0  0  0
   -6.7171    1.0572    0.2153 H   0  0  0  0  0  0  0  0  0  0  0  0
   -6.6696   -1.2659    0.5501 H   0  0  0  0  0  0  0  0  0  0  0  0
   -7.1147   -1.1717   -1.2312 H   0  0  0  0  0  0  0  0  0  0  0  0
   -5.0440   -1.8970   -1.8873 H   0  0  0  0  0  0  0  0  0  0  0  0
   -5.0236   -2.5821   -0.2510 H   0  0  0  0  0  0  0  0  0  0  0  0
   -3.4836   -0.3601   -1.3572 H   0  0  0  0  0  0  0  0  0  0  0  0
   -3.3616   -1.1658    0.3079 H   0  0  0  0  0  0  0  0  0  0  0  0
   -0.6254   -1.3237   -1.1458 H   0  0  0  0  0  0  0  0  0  0  0  0
    1.6645   -2.0721   -0.6459 H   0  0  0  0  0  0  0  0  0  0  0  0
    5.6068   -2.0388    1.6281 H   0  0  0  0  0  0  0  0  0  0  0  0
    7.7248   -1.3095    0.5779 H   0  0  0  0  0  0  0  0  0  0  0  0
  1  2  1  0
  2  3  2  0
  3  4  1  0
  4  5  2  0
  5  6  1  0
  6  7  1  0
  7  8  2  0
  8  9  1  0
  9 10  2  0
 10 11  1  0
 11 12  1  0
 12 13  1  0
 13 14  1  0
 14 15  1  0
 15 16  1  0
 16 17  1  0
 17 18  1  0
 10 19  1  0
 19 20  2  0
  5 21  1  0
 21 22  2  0
 22  2  1  0
 20  7  1  0
 18 14  1  0
  1 23  1  0
  1 24  1  0
  3 25  1  0
  4 26  1  0
  8 27  1  0
  9 28  1  0
 12 29  1  0
 12 30  1  0
 13 31  1  0
 13 32  1  0
 15 33  1  0
 15 34  1  0
 16 35  1  0
 16 36  1  0
 17 37  1  0
 17 38  1  0
 18 39  1  0
 18 40  1  0
 19 41  1  0
 20 42  1  0
 21 43  1  0
 22 44  1  0
M  END
$$$$
