@<TRIPOS>MOLECULE
*****
 44 46 0 0 0
SMALL
GASTEIGER

@<TRIPOS>ATOM
      1 N           8.0302    0.5174   -1.2316 N.pl3   1  UNL1       -0.3580
      2 C           6.7959    0.1360   -0.6616 C.ar    1  UNL1        0.0248
      3 C           5.6062    0.7126   -1.0215 C.ar    1  UNL1       -0.0376
      4 C           4.4107    0.3435   -0.4697 C.ar    1  UNL1       -0.0176
      5 C           4.4086   -0.6462    0.4838 C.ar    1  UNL1        0.1286
      6 O           3.2678   -1.1079    1.1158 O.3     1  UNL1       -0.4560
      7 C           1.9970   -0.6474    0.8812 C.ar    1  UNL1        0.1287
      8 C           1.4181    0.3987    1.5676 C.ar    1  UNL1       -0.0159
      9 C           0.1375    0.8440    1.3135 C.ar    1  UNL1       -0.0165
     10 C          -0.6228    0.2379    0.3369 C.ar    1  UNL1        0.1208
     11 O          -1.8937    0.6292    0.0366 O.3     1  UNL1       -0.4907
     12 C          -2.6093    1.6605    0.6369 C.3     1  UNL1        0.1022
     13 C          -3.9753    1.7404   -0.0090 C.3     1  UNL1        0.0331
     14 N          -4.6761    0.4986    0.1704 N.3     1  UNL1       -0.2991
     15 C          -5.9950    0.5364   -0.4317 C.3     1  UNL1       -0.0010
     16 C          -6.3629   -0.9261   -0.4516 C.3     1  UNL1       -0.0390
     17 C          -5.0897   -1.6232   -0.8180 C.3     1  UNL1       -0.0390
     18 C          -4.0110   -0.6403   -0.4111 C.3     1  UNL1       -0.0010
     19 C          -0.0572   -0.8084   -0.3567 C.ar    1  UNL1       -0.0165
     20 C           1.2240   -1.2546   -0.1032 C.ar    1  UNL1       -0.0159
     21 C           5.6075   -1.2517    0.8700 C.ar    1  UNL1       -0.0176
     22 C           6.7863   -0.8538    0.2932 C.ar    1  UNL1       -0.0376
     23 H           8.0740    0.8513   -2.2071 H       1  UNL1        0.1423
     24 H           8.9001    0.4643   -0.6737 H       1  UNL1        0.1423
     25 H           5.6096    1.4913   -1.7720 H       1  UNL1        0.0637
     26 H           3.4629    0.7941   -0.7480 H       1  UNL1        0.0655
     27 H           2.0329    0.8755    2.3447 H       1  UNL1        0.0655
     28 H          -0.2564    1.6864    1.9044 H       1  UNL1        0.0655
     29 H          -2.0664    2.6167    0.5519 H       1  UNL1        0.0709
     30 H          -2.7771    1.4940    1.7344 H       1  UNL1        0.0709
     31 H          -3.7790    1.8874   -1.1102 H       1  UNL1        0.0460
     32 H          -4.5798    2.5533    0.3908 H       1  UNL1        0.0460
     33 H          -5.9741    0.9197   -1.4715 H       1  UNL1        0.0427
     34 H          -6.7171    1.0572    0.2153 H       1  UNL1        0.0427
     35 H          -6.6696   -1.2659    0.5501 H       1  UNL1        0.0278
     36 H          -7.1147   -1.1717   -1.2312 H       1  UNL1        0.0278
     37 H          -5.0440   -1.8970   -1.8873 H       1  UNL1        0.0278
     38 H          -5.0236   -2.5821   -0.2510 H       1  UNL1        0.0278
     39 H          -3.4836   -0.3601   -1.3572 H       1  UNL1        0.0427
     40 H          -3.3616   -1.1658    0.3079 H       1  UNL1        0.0427
     41 H          -0.6254   -1.3237   -1.1458 H       1  UNL1        0.0655
     42 H           1.6645   -2.0721   -0.6459 H       1  UNL1        0.0655
     43 H           5.6068   -2.0388    1.6281 H       1  UNL1        0.0655
     44 H           7.7248   -1.3095    0.5779 H       1  UNL1        0.0637
@<TRIPOS>BOND
     1     1     2    1
     2     2     3   ar
     3     3     4   ar
     4     4     5   ar
     5     5     6    1
     6     6     7    1
     7     7     8   ar
     8     8     9   ar
     9     9    10   ar
    10    10    11    1
    11    11    12    1
    12    12    13    1
    13    13    14    1
    14    14    15    1
    15    15    16    1
    16    16    17    1
    17    17    18    1
    18    10    19   ar
    19    19    20   ar
    20     5    21   ar
    21    21    22   ar
    22    22     2   ar
    23    20     7   ar
    24    18    14    1
    25     1    23    1
    26     1    24    1
    27     3    25    1
    28     4    26    1
    29     8    27    1
    30     9    28    1
    31    12    29    1
    32    12    30    1
    33    13    31    1
    34    13    32    1
    35    15    33    1
    36    15    34    1
    37    16    35    1
    38    16    36    1
    39    17    37    1
    40    17    38    1
    41    18    39    1
    42    18    40    1
    43    19    41    1
    44    20    42    1
    45    21    43    1
    46    22    44    1
