
     RDKit          3D

 58 62  0  0  0  0  0  0  0  0999 V2000
   -4.3407   -2.9588   -2.0854 C   0  0  0  0  0  0  0  0  0  0  0  0
   -3.8398   -2.0866   -1.0331 N   0  0  0  0  0  0  0  0  0  0  0  0
   -3.3525   -2.4146    0.1730 C   0  0  0  0  0  0  0  0  0  0  0  0
   -2.9879   -1.2591    0.8560 C   0  0  0  0  0  0  0  0  0  0  0  0
   -2.4421   -1.1317    2.1958 C   0  0  0  0  0  0  0  0  0  0  0  0
   -1.3352   -0.4884    2.5148 C   0  0  0  0  0  0  0  0  0  0  0  0
   -0.4332    0.2147    1.6148 C   0  0  0  0  0  0  0  0  0  0  0  0
    0.1053   -0.2566    0.4082 C   0  0  0  0  0  0  0  0  0  0  0  0
    0.8750    0.6975   -0.1336 N   0  0  0  0  0  0  0  0  0  0  0  0
    1.6309    0.6110   -1.3937 C   0  0  0  0  0  0  0  0  0  0  0  0
    3.0341    0.0715   -1.0919 C   0  0  0  0  0  0  0  0  0  0  0  0
    3.8670   -0.0341   -2.3271 C   0  0  0  0  0  0  0  0  0  0  0  0
    5.2543   -0.5524   -2.0590 C   0  0  0  0  0  0  0  0  0  0  0  0
    5.2537   -1.9274   -1.4488 C   0  0  0  0  0  0  0  0  0  0  0  0
    6.6129   -2.3748   -1.2163 N   0  0  0  0  0  0  0  0  0  0  0  0
    0.8773    1.7932    0.6554 C   0  0  0  0  0  0  0  0  0  0  0  0
    1.4862    3.0285    0.5596 C   0  0  0  0  0  0  0  0  0  0  0  0
    1.3186    4.0016    1.5181 C   0  0  0  0  0  0  0  0  0  0  0  0
    0.5172    3.7241    2.5995 C   0  0  0  0  0  0  0  0  0  0  0  0
   -0.1003    2.4735    2.6990 C   0  0  0  0  0  0  0  0  0  0  0  0
    0.0680    1.4983    1.7398 C   0  0  0  0  0  0  0  0  0  0  0  0
   -1.1360   -0.6084    3.9751 C   0  0  0  0  0  0  0  0  0  0  0  0
   -0.1744   -0.1096    4.5989 O   0  0  0  0  0  0  0  0  0  0  0  0
   -2.2025   -1.3740    4.5405 N   0  0  0  0  0  0  0  0  0  0  0  0
   -3.0275   -1.7073    3.4356 C   0  0  0  0  0  0  0  0  0  0  0  0
   -4.1011   -2.3822    3.4313 O   0  0  0  0  0  0  0  0  0  0  0  0
   -3.2807   -0.2210    0.0054 C   0  0  0  0  0  0  0  0  0  0  0  0
   -3.1544    1.1456    0.1299 C   0  0  0  0  0  0  0  0  0  0  0  0
   -3.5612    1.9551   -0.9349 C   0  0  0  0  0  0  0  0  0  0  0  0
   -4.0806    1.4521   -2.0940 C   0  0  0  0  0  0  0  0  0  0  0  0
   -4.2091    0.0865   -2.2191 C   0  0  0  0  0  0  0  0  0  0  0  0
   -3.8142   -0.7315   -1.1813 C   0  0  0  0  0  0  0  0  0  0  0  0
   -5.4672   -3.0095   -2.0105 H   0  0  0  0  0  0  0  0  0  0  0  0
   -4.1587   -2.5265   -3.0951 H   0  0  0  0  0  0  0  0  0  0  0  0
   -3.9496   -3.9921   -2.0135 H   0  0  0  0  0  0  0  0  0  0  0  0
   -3.2553   -3.4259    0.5660 H   0  0  0  0  0  0  0  0  0  0  0  0
   -0.0557   -1.2240   -0.0392 H   0  0  0  0  0  0  0  0  0  0  0  0
    1.0832   -0.0391   -2.1043 H   0  0  0  0  0  0  0  0  0  0  0  0
    1.7363    1.5884   -1.8852 H   0  0  0  0  0  0  0  0  0  0  0  0
    3.4614    0.7016   -0.3091 H   0  0  0  0  0  0  0  0  0  0  0  0
    2.8912   -0.9754   -0.7115 H   0  0  0  0  0  0  0  0  0  0  0  0
    3.9588    1.0036   -2.7428 H   0  0  0  0  0  0  0  0  0  0  0  0
    3.4059   -0.6791   -3.0843 H   0  0  0  0  0  0  0  0  0  0  0  0
    5.8061   -0.5931   -3.0186 H   0  0  0  0  0  0  0  0  0  0  0  0
    5.7926    0.1805   -1.3936 H   0  0  0  0  0  0  0  0  0  0  0  0
    4.7194   -2.5999   -2.1495 H   0  0  0  0  0  0  0  0  0  0  0  0
    4.7077   -1.8609   -0.4788 H   0  0  0  0  0  0  0  0  0  0  0  0
    7.2670   -1.6451   -1.5747 H   0  0  0  0  0  0  0  0  0  0  0  0
    6.7581   -2.5347   -0.2080 H   0  0  0  0  0  0  0  0  0  0  0  0
    2.1218    3.2426   -0.3031 H   0  0  0  0  0  0  0  0  0  0  0  0
    1.8074    4.9777    1.4377 H   0  0  0  0  0  0  0  0  0  0  0  0
    0.3591    4.4545    3.3699 H   0  0  0  0  0  0  0  0  0  0  0  0
   -0.7261    2.3101    3.5652 H   0  0  0  0  0  0  0  0  0  0  0  0
   -2.3871   -1.6528    5.5200 H   0  0  0  0  0  0  0  0  0  0  0  0
   -2.7659    1.5795    1.0351 H   0  0  0  0  0  0  0  0  0  0  0  0
   -3.4425    3.0385   -0.7930 H   0  0  0  0  0  0  0  0  0  0  0  0
   -4.3745    2.1424   -2.8813 H   0  0  0  0  0  0  0  0  0  0  0  0
   -4.6205   -0.3482   -3.1300 H   0  0  0  0  0  0  0  0  0  0  0  0
  1  2  1  0
  2  3  1  0
  3  4  2  0
  4  5  1  0
  5  6  2  0
  6  7  1  0
  7  8  2  0
  8  9  1  0
  9 10  1  0
 10 11  1  0
 11 12  1  0
 12 13  1  0
 13 14  1  0
 14 15  1  0
  9 16  1  0
 16 17  2  0
 17 18  1  0
 18 19  2  0
 19 20  1  0
 20 21  2  0
  6 22  1  0
 22 23  2  0
 22 24  1  0
 24 25  1  0
 25 26  2  0
  4 27  1  0
 27 28  2  0
 28 29  1  0
 29 30  2  0
 30 31  1  0
 31 32  2  0
 32  2  1  0
 25  5  1  0
 32 27  1  0
 21  7  1  0
 21 16  1  0
  1 33  1  0
  1 34  1  0
  1 35  1  0
  3 36  1  0
  8 37  1  0
 10 38  1  0
 10 39  1  0
 11 40  1  0
 11 41  1  0
 12 42  1  0
 12 43  1  0
 13 44  1  0
 13 45  1  0
 14 46  1  0
 14 47  1  0
 15 48  1  0
 15 49  1  0
 17 50  1  0
 18 51  1  0
 19 52  1  0
 20 53  1  0
 24 54  1  0
 28 55  1  0
 29 56  1  0
 30 57  1  0
 31 58  1  0
M  END
$$$$
