@<TRIPOS>MOLECULE
*****
 58 62 0 0 0
SMALL
GASTEIGER

@<TRIPOS>ATOM
      1 C          -4.3407   -2.9588   -2.0854 C.3     1  UNL1        0.0119
      2 N          -3.8398   -2.0866   -1.0331 N.ar    1  UNL1       -0.3491
      3 C          -3.3525   -2.4146    0.1730 C.ar    1  UNL1        0.0133
      4 C          -2.9879   -1.2591    0.8560 C.ar    1  UNL1        0.0131
      5 C          -2.4421   -1.1317    2.1958 C.2     1  UNL1        0.0590
      6 C          -1.3352   -0.4884    2.5148 C.2     1  UNL1        0.0590
      7 C          -0.4332    0.2147    1.6148 C.ar    1  UNL1        0.0131
      8 C           0.1053   -0.2566    0.4082 C.ar    1  UNL1        0.0136
      9 N           0.8750    0.6975   -0.1336 N.ar    1  UNL1       -0.3460
     10 C           1.6309    0.6110   -1.3937 C.3     1  UNL1        0.0233
     11 C           3.0341    0.0715   -1.0919 C.3     1  UNL1       -0.0349
     12 C           3.8670   -0.0341   -2.3271 C.3     1  UNL1       -0.0503
     13 C           5.2543   -0.5524   -2.0590 C.3     1  UNL1       -0.0406
     14 C           5.2537   -1.9274   -1.4488 C.3     1  UNL1       -0.0069
     15 N           6.6129   -2.3748   -1.2163 N.3     1  UNL1       -0.3300
     16 C           0.8773    1.7932    0.6554 C.ar    1  UNL1        0.0497
     17 C           1.4862    3.0285    0.5596 C.ar    1  UNL1       -0.0376
     18 C           1.3186    4.0016    1.5181 C.ar    1  UNL1       -0.0598
     19 C           0.5172    3.7241    2.5995 C.ar    1  UNL1       -0.0611
     20 C          -0.1003    2.4735    2.6990 C.ar    1  UNL1       -0.0520
     21 C           0.0680    1.4983    1.7398 C.ar    1  UNL1        0.0077
     22 C          -1.1360   -0.6084    3.9751 C.2     1  UNL1        0.2519
     23 O          -0.1744   -0.1096    4.5989 O.2     1  UNL1       -0.2697
     24 N          -2.2025   -1.3740    4.5405 N.am    1  UNL1       -0.2483
     25 C          -3.0275   -1.7073    3.4356 C.2     1  UNL1        0.2519
     26 O          -4.1011   -2.3822    3.4313 O.2     1  UNL1       -0.2697
     27 C          -3.2807   -0.2210    0.0054 C.ar    1  UNL1        0.0077
     28 C          -3.1544    1.1456    0.1299 C.ar    1  UNL1       -0.0520
     29 C          -3.5612    1.9551   -0.9349 C.ar    1  UNL1       -0.0611
     30 C          -4.0806    1.4521   -2.0940 C.ar    1  UNL1       -0.0598
     31 C          -4.2091    0.0865   -2.2191 C.ar    1  UNL1       -0.0376
     32 C          -3.8142   -0.7315   -1.1813 C.ar    1  UNL1        0.0494
     33 H          -5.4672   -3.0095   -2.0105 H       1  UNL1        0.0456
     34 H          -4.1587   -2.5265   -3.0951 H       1  UNL1        0.0456
     35 H          -3.9496   -3.9921   -2.0135 H       1  UNL1        0.0456
     36 H          -3.2553   -3.4259    0.5660 H       1  UNL1        0.0815
     37 H          -0.0557   -1.2240   -0.0392 H       1  UNL1        0.0815
     38 H           1.0832   -0.0391   -2.1043 H       1  UNL1        0.0492
     39 H           1.7363    1.5884   -1.8852 H       1  UNL1        0.0492
     40 H           3.4614    0.7016   -0.3091 H       1  UNL1        0.0282
     41 H           2.8912   -0.9754   -0.7115 H       1  UNL1        0.0282
     42 H           3.9588    1.0036   -2.7428 H       1  UNL1        0.0266
     43 H           3.4059   -0.6791   -3.0843 H       1  UNL1        0.0266
     44 H           5.8061   -0.5931   -3.0186 H       1  UNL1        0.0277
     45 H           5.7926    0.1805   -1.3936 H       1  UNL1        0.0277
     46 H           4.7194   -2.5999   -2.1495 H       1  UNL1        0.0422
     47 H           4.7077   -1.8609   -0.4788 H       1  UNL1        0.0422
     48 H           7.2670   -1.6451   -1.5747 H       1  UNL1        0.1182
     49 H           6.7581   -2.5347   -0.2080 H       1  UNL1        0.1182
     50 H           2.1218    3.2426   -0.3031 H       1  UNL1        0.0638
     51 H           1.8074    4.9777    1.4377 H       1  UNL1        0.0618
     52 H           0.3591    4.4545    3.3699 H       1  UNL1        0.0618
     53 H          -0.7261    2.3101    3.5652 H       1  UNL1        0.0624
     54 H          -2.3871   -1.6528    5.5200 H       1  UNL1        0.1581
     55 H          -2.7659    1.5795    1.0351 H       1  UNL1        0.0624
     56 H          -3.4425    3.0385   -0.7930 H       1  UNL1        0.0618
     57 H          -4.3745    2.1424   -2.8813 H       1  UNL1        0.0618
     58 H          -4.6205   -0.3482   -3.1300 H       1  UNL1        0.0638
@<TRIPOS>BOND
     1     1     2    1
     2     2     3   ar
     3     3     4   ar
     4     4     5    1
     5     5     6    2
     6     6     7    1
     7     7     8   ar
     8     8     9   ar
     9     9    10    1
    10    10    11    1
    11    11    12    1
    12    12    13    1
    13    13    14    1
    14    14    15    1
    15     9    16   ar
    16    16    17   ar
    17    17    18   ar
    18    18    19   ar
    19    19    20   ar
    20    20    21   ar
    21     6    22    1
    22    22    23    2
    23    22    24   am
    24    24    25   am
    25    25    26    2
    26     4    27   ar
    27    27    28   ar
    28    28    29   ar
    29    29    30   ar
    30    30    31   ar
    31    31    32   ar
    32    32     2   ar
    33    25     5    1
    34    32    27   ar
    35    21     7   ar
    36    21    16   ar
    37     1    33    1
    38     1    34    1
    39     1    35    1
    40     3    36    1
    41     8    37    1
    42    10    38    1
    43    10    39    1
    44    11    40    1
    45    11    41    1
    46    12    42    1
    47    12    43    1
    48    13    44    1
    49    13    45    1
    50    14    46    1
    51    14    47    1
    52    15    48    1
    53    15    49    1
    54    17    50    1
    55    18    51    1
    56    19    52    1
    57    20    53    1
    58    24    54    1
    59    28    55    1
    60    29    56    1
    61    30    57    1
    62    31    58    1
