
     RDKit          3D

 42 45  0  0  0  0  0  0  0  0999 V2000
    5.0920    2.9013    0.5727 C   0  0  0  0  0  0  0  0  0  0  0  0
    3.9109    2.0033    0.3576 C   0  0  0  0  0  0  0  0  0  0  0  0
    3.0724    1.5075    1.3293 C   0  0  0  0  0  0  0  0  0  0  0  0
    2.1081    0.7112    0.7172 C   0  0  0  0  0  0  0  0  0  0  0  0
    1.0584   -0.0072    1.3442 N   0  0  0  0  0  0  0  0  0  0  0  0
    0.1573   -0.7960    0.5844 C   0  0  0  0  0  0  0  0  0  0  0  0
   -1.0987   -0.4328    0.2692 N   0  0  0  0  0  0  0  0  0  0  0  0
   -1.9084   -1.2309   -0.4631 C   0  0  0  0  0  0  0  0  0  0  0  0
   -3.3130   -0.8254   -0.8095 C   0  0  2  0  0  0  0  0  0  0  0  0
   -3.5276   -1.0604   -2.1553 O   0  0  0  0  0  0  0  0  0  0  0  0
   -3.5263    0.5581   -0.3770 C   0  0  0  0  0  0  0  0  0  0  0  0
   -3.0063    1.6149   -1.0889 C   0  0  0  0  0  0  0  0  0  0  0  0
   -3.2164    2.9027   -0.6612 C   0  0  0  0  0  0  0  0  0  0  0  0
   -3.9487    3.2082    0.4880 C   0  0  0  0  0  0  0  0  0  0  0  0
   -4.1222    4.4867    0.8643 F   0  0  0  0  0  0  0  0  0  0  0  0
   -4.4702    2.1355    1.2001 C   0  0  0  0  0  0  0  0  0  0  0  0
   -4.2522    0.8497    0.7601 C   0  0  0  0  0  0  0  0  0  0  0  0
   -1.4071   -2.4062   -0.8657 N   0  0  0  0  0  0  0  0  0  0  0  0
   -0.1638   -2.8226   -0.5831 C   0  0  0  0  0  0  0  0  0  0  0  0
    0.3428   -4.0543   -1.0162 C   0  0  0  0  0  0  0  0  0  0  0  0
    1.6099   -4.4890   -0.7353 C   0  0  0  0  0  0  0  0  0  0  0  0
    2.4214   -3.6619    0.0127 C   0  0  0  0  0  0  0  0  0  0  0  0
    1.9410   -2.4334    0.4539 C   0  0  0  0  0  0  0  0  0  0  0  0
    0.6588   -2.0322    0.1506 C   0  0  0  0  0  0  0  0  0  0  0  0
    2.3916    0.7517   -0.5924 N   0  0  0  0  0  0  0  0  0  0  0  0
    3.4500    1.5079   -0.8213 N   0  0  0  0  0  0  0  0  0  0  0  0
    6.0393    2.3083    0.5998 H   0  0  0  0  0  0  0  0  0  0  0  0
    5.0077    3.4605    1.5205 H   0  0  0  0  0  0  0  0  0  0  0  0
    5.1014    3.6511   -0.2552 H   0  0  0  0  0  0  0  0  0  0  0  0
    3.1131    1.6771    2.4055 H   0  0  0  0  0  0  0  0  0  0  0  0
    0.9288    0.0314    2.3717 H   0  0  0  0  0  0  0  0  0  0  0  0
   -4.0325   -1.5074   -0.2637 H   0  0  0  0  0  0  0  0  0  0  0  0
   -3.0092   -1.8606   -2.4131 H   0  0  0  0  0  0  0  0  0  0  0  0
   -2.4367    1.4069   -1.9777 H   0  0  0  0  0  0  0  0  0  0  0  0
   -2.7892    3.7085   -1.2458 H   0  0  0  0  0  0  0  0  0  0  0  0
   -5.0508    2.3114    2.1055 H   0  0  0  0  0  0  0  0  0  0  0  0
   -4.6704    0.0317    1.3285 H   0  0  0  0  0  0  0  0  0  0  0  0
   -0.3266   -4.6617   -1.5950 H   0  0  0  0  0  0  0  0  0  0  0  0
    2.0178   -5.4326   -1.0613 H   0  0  0  0  0  0  0  0  0  0  0  0
    3.4372   -3.9427    0.2674 H   0  0  0  0  0  0  0  0  0  0  0  0
    2.5469   -1.7650    1.0384 H   0  0  0  0  0  0  0  0  0  0  0  0
    3.8692    1.6967   -1.7610 H   0  0  0  0  0  0  0  0  0  0  0  0
  1  2  1  0
  2  3  2  0
  3  4  1  0
  4  5  1  0
  5  6  1  0
  6  7  2  0
  7  8  1  0
  8  9  1  0
  9 10  1  0
  9 11  1  0
 11 12  2  0
 12 13  1  0
 13 14  2  0
 14 15  1  0
 14 16  1  0
 16 17  2  0
  8 18  2  0
 18 19  1  0
 19 20  2  0
 20 21  1  0
 21 22  2  0
 22 23  1  0
 23 24  2  0
  4 25  2  0
 25 26  1  0
 26  2  1  0
 24  6  1  0
 17 11  1  0
 24 19  1  0
  1 27  1  0
  1 28  1  0
  1 29  1  0
  3 30  1  0
  5 31  1  0
  9 32  1  1
 10 33  1  0
 12 34  1  0
 13 35  1  0
 16 36  1  0
 17 37  1  0
 20 38  1  0
 21 39  1  0
 22 40  1  0
 23 41  1  0
 26 42  1  0
M  END
$$$$
