@<TRIPOS>MOLECULE
*****
 42 45 0 0 0
SMALL
GASTEIGER

@<TRIPOS>ATOM
      1 C           5.0920    2.9013    0.5727 C.3     1  UNL1       -0.0228
      2 C           3.9109    2.0033    0.3576 C.ar    1  UNL1        0.0349
      3 C           3.0724    1.5075    1.3293 C.ar    1  UNL1        0.0006
      4 C           2.1081    0.7112    0.7172 C.ar    1  UNL1        0.1459
      5 N           1.0584   -0.0072    1.3442 N.pl3   1  UNL1       -0.2824
      6 C           0.1573   -0.7960    0.5844 C.ar    1  UNL1        0.1354
      7 N          -1.0987   -0.4328    0.2692 N.ar    1  UNL1       -0.2135
      8 C          -1.9084   -1.2309   -0.4631 C.ar    1  UNL1        0.1645
      9 C          -3.3130   -0.8254   -0.8095 C.3     1  UNL1        0.1394
     10 O          -3.5276   -1.0604   -2.1553 O.3     1  UNL1       -0.3794
     11 C          -3.5263    0.5581   -0.3770 C.ar    1  UNL1       -0.0116
     12 C          -3.0063    1.6149   -1.0889 C.ar    1  UNL1       -0.0530
     13 C          -3.2164    2.9027   -0.6612 C.ar    1  UNL1       -0.0261
     14 C          -3.9487    3.2082    0.4880 C.ar    1  UNL1        0.1234
     15 F          -4.1222    4.4867    0.8643 F       1  UNL1       -0.2055
     16 C          -4.4702    2.1355    1.2001 C.ar    1  UNL1       -0.0261
     17 C          -4.2522    0.8497    0.7601 C.ar    1  UNL1       -0.0530
     18 N          -1.4071   -2.4062   -0.8657 N.ar    1  UNL1       -0.2289
     19 C          -0.1638   -2.8226   -0.5831 C.ar    1  UNL1        0.0764
     20 C           0.3428   -4.0543   -1.0162 C.ar    1  UNL1       -0.0356
     21 C           1.6099   -4.4890   -0.7353 C.ar    1  UNL1       -0.0597
     22 C           2.4214   -3.6619    0.0127 C.ar    1  UNL1       -0.0610
     23 C           1.9410   -2.4334    0.4539 C.ar    1  UNL1       -0.0493
     24 C           0.6588   -2.0322    0.1506 C.ar    1  UNL1        0.0405
     25 N           2.3916    0.7517   -0.5924 N.ar    1  UNL1       -0.1584
     26 N           3.4500    1.5079   -0.8213 N.ar    1  UNL1       -0.2801
     27 H           6.0393    2.3083    0.5998 H       1  UNL1        0.0292
     28 H           5.0077    3.4605    1.5205 H       1  UNL1        0.0292
     29 H           5.1014    3.6511   -0.2552 H       1  UNL1        0.0292
     30 H           3.1131    1.6771    2.4055 H       1  UNL1        0.0670
     31 H           0.9288    0.0314    2.3717 H       1  UNL1        0.1550
     32 H          -4.0325   -1.5074   -0.2637 H       1  UNL1        0.0726
     33 H          -3.0092   -1.8606   -2.4131 H       1  UNL1        0.2108
     34 H          -2.4367    1.4069   -1.9777 H       1  UNL1        0.0622
     35 H          -2.7892    3.7085   -1.2458 H       1  UNL1        0.0646
     36 H          -5.0508    2.3114    2.1055 H       1  UNL1        0.0646
     37 H          -4.6704    0.0317    1.3285 H       1  UNL1        0.0622
     38 H          -0.3266   -4.6617   -1.5950 H       1  UNL1        0.0639
     39 H           2.0178   -5.4326   -1.0613 H       1  UNL1        0.0618
     40 H           3.4372   -3.9427    0.2674 H       1  UNL1        0.0618
     41 H           2.5469   -1.7650    1.0384 H       1  UNL1        0.0625
     42 H           3.8692    1.6967   -1.7610 H       1  UNL1        0.1886
@<TRIPOS>BOND
     1     1     2    1
     2     2     3   ar
     3     3     4   ar
     4     4     5    1
     5     5     6    1
     6     6     7   ar
     7     7     8   ar
     8     8     9    1
     9     9    10    1
    10     9    11    1
    11    11    12   ar
    12    12    13   ar
    13    13    14   ar
    14    14    15    1
    15    14    16   ar
    16    16    17   ar
    17     8    18   ar
    18    18    19   ar
    19    19    20   ar
    20    20    21   ar
    21    21    22   ar
    22    22    23   ar
    23    23    24   ar
    24     4    25   ar
    25    25    26   ar
    26    26     2   ar
    27    24     6   ar
    28    17    11   ar
    29    24    19   ar
    30     1    27    1
    31     1    28    1
    32     1    29    1
    33     3    30    1
    34     5    31    1
    35     9    32    1
    36    10    33    1
    37    12    34    1
    38    13    35    1
    39    16    36    1
    40    17    37    1
    41    20    38    1
    42    21    39    1
    43    22    40    1
    44    23    41    1
    45    26    42    1
