@<TRIPOS>MOLECULE
*****
 39 43 0 0 0
SMALL
GASTEIGER

@<TRIPOS>ATOM
      1 N           1.2485   -0.5045   -4.4149 N.1     1  UNL1       -0.1908
      2 C           1.9387   -0.9072   -3.6196 C.1     1  UNL1        0.0999
      3 C           2.8320   -1.4536   -2.5914 C.ar    1  UNL1        0.0636
      4 C           3.9650   -2.0804   -3.0559 C.ar    1  UNL1       -0.0436
      5 C           4.8257   -2.6683   -2.1331 C.ar    1  UNL1       -0.0593
      6 C           4.5136   -2.6007   -0.7822 C.ar    1  UNL1       -0.0436
      7 C           3.3879   -1.9769   -0.3155 C.ar    1  UNL1        0.0636
      8 C           3.0638   -1.8965    1.0817 C.1     1  UNL1        0.0999
      9 N           2.7939   -1.8413    2.2262 N.1     1  UNL1       -0.1908
     10 C           2.5141   -1.3803   -1.2634 C.ar    1  UNL1        0.0519
     11 C           1.3612   -0.6747   -0.7463 C.ar    1  UNL1        0.1418
     12 N           0.8841   -0.8568    0.5216 N.ar    1  UNL1       -0.2270
     13 C          -0.2108   -0.1412    0.7479 C.ar    1  UNL1        0.0977
     14 C          -1.0500    0.0174    1.8396 C.ar    1  UNL1        0.0102
     15 C          -0.7710   -0.6787    2.9847 C.ar    1  UNL1       -0.0519
     16 C          -1.5960   -0.5428    4.0888 C.ar    1  UNL1       -0.0611
     17 C          -2.7004    0.2952    4.0369 C.ar    1  UNL1       -0.0611
     18 C          -2.9840    0.9977    2.8869 C.ar    1  UNL1       -0.0534
     19 C          -2.1481    0.8528    1.7837 C.ar    1  UNL1       -0.0080
     20 C          -2.3809    1.5251    0.6010 C.ar    1  UNL1       -0.0067
     21 C          -3.4507    2.3796    0.4820 C.ar    1  UNL1       -0.0350
     22 C          -3.6660    3.0593   -0.7174 C.ar    1  UNL1        0.0416
     23 CL         -5.0364    4.1610   -0.8739 Cl      1  UNL1       -0.0835
     24 C          -2.8535    2.9150   -1.7952 C.ar    1  UNL1       -0.0427
     25 C          -1.7776    2.0557   -1.6796 C.ar    1  UNL1       -0.0506
     26 C          -1.5590    1.3823   -0.4991 C.ar    1  UNL1        0.0082
     27 C          -0.4695    0.5446   -0.4216 C.ar    1  UNL1        0.0749
     28 N           0.5170    0.1879   -1.3039 N.ar    1  UNL1       -0.3373
     29 H           4.1577   -2.1003   -4.1117 H       1  UNL1        0.0631
     30 H           5.7263   -3.1767   -2.4326 H       1  UNL1        0.0618
     31 H           5.2019   -3.0642   -0.0936 H       1  UNL1        0.0631
     32 H           0.0884   -1.3257    3.0101 H       1  UNL1        0.0624
     33 H          -1.4104   -1.0784    5.0064 H       1  UNL1        0.0618
     34 H          -3.3344    0.3851    4.9155 H       1  UNL1        0.0618
     35 H          -3.8397    1.6346    2.8745 H       1  UNL1        0.0624
     36 H          -4.1541    2.5604    1.2899 H       1  UNL1        0.0638
     37 H          -3.0021    3.4373   -2.7394 H       1  UNL1        0.0632
     38 H          -1.1360    1.9422   -2.5414 H       1  UNL1        0.0625
     39 H           0.5111    0.6160   -2.2456 H       1  UNL1        0.1674
@<TRIPOS>BOND
     1     1     2    3
     2     2     3    1
     3     3     4   ar
     4     4     5   ar
     5     5     6   ar
     6     6     7   ar
     7     7     8    1
     8     8     9    3
     9     7    10   ar
    10    10    11    1
    11    11    12   ar
    12    12    13   ar
    13    13    14   ar
    14    14    15   ar
    15    15    16   ar
    16    16    17   ar
    17    17    18   ar
    18    18    19   ar
    19    19    20   ar
    20    20    21   ar
    21    21    22   ar
    22    22    23    1
    23    22    24   ar
    24    24    25   ar
    25    25    26   ar
    26    26    27   ar
    27    27    28   ar
    28    10     3   ar
    29    28    11   ar
    30    27    13   ar
    31    19    14   ar
    32    26    20   ar
    33     4    29    1
    34     5    30    1
    35     6    31    1
    36    15    32    1
    37    16    33    1
    38    17    34    1
    39    18    35    1
    40    21    36    1
    41    24    37    1
    42    25    38    1
    43    28    39    1
