
     RDKit          3D

 24 24  0  0  0  0  0  0  0  0999 V2000
    2.9972    0.0108    0.0594 O   0  0  0  0  0  0  0  0  0  0  0  0
    1.9723   -0.7893   -0.4834 C   0  0  0  0  0  0  0  0  0  0  0  0
    0.7415    0.0714   -0.8021 C   0  0  1  0  0  0  0  0  0  0  0  0
   -0.2512   -0.7595   -1.3382 N   0  0  0  0  0  0  0  0  0  0  0  0
   -1.1976   -1.3240   -0.4762 C   0  0  0  0  0  0  0  0  0  0  0  0
   -1.8735   -0.2195    0.3190 C   0  0  2  0  0  0  0  0  0  0  0  0
   -2.5947    0.6396   -0.4765 O   0  0  0  0  0  0  0  0  0  0  0  0
   -0.8100    0.4533    1.1389 C   0  0  1  0  0  0  0  0  0  0  0  0
   -0.4969   -0.4142    2.1960 O   0  0  0  0  0  0  0  0  0  0  0  0
    0.3691    0.9053    0.3674 C   0  0  2  0  0  0  0  0  0  0  0  0
    0.1999    2.2549   -0.0077 O   0  0  0  0  0  0  0  0  0  0  0  0
    3.3340    0.6007   -0.6610 H   0  0  0  0  0  0  0  0  0  0  0  0
    1.7083   -1.6001    0.2419 H   0  0  0  0  0  0  0  0  0  0  0  0
    2.3609   -1.2166   -1.4138 H   0  0  0  0  0  0  0  0  0  0  0  0
    1.0997    0.7708   -1.6139 H   0  0  0  0  0  0  0  0  0  0  0  0
   -0.4472   -0.7199   -2.3326 H   0  0  0  0  0  0  0  0  0  0  0  0
   -1.9337   -1.9120   -1.0267 H   0  0  0  0  0  0  0  0  0  0  0  0
   -0.6813   -1.9755    0.2877 H   0  0  0  0  0  0  0  0  0  0  0  0
   -2.5882   -0.7226    1.0063 H   0  0  0  0  0  0  0  0  0  0  0  0
   -2.1875    0.8116   -1.3407 H   0  0  0  0  0  0  0  0  0  0  0  0
   -1.2839    1.3470    1.6168 H   0  0  0  0  0  0  0  0  0  0  0  0
    0.0554    0.0207    2.8748 H   0  0  0  0  0  0  0  0  0  0  0  0
    1.2503    0.9250    1.0742 H   0  0  0  0  0  0  0  0  0  0  0  0
    0.2571    2.8421    0.7904 H   0  0  0  0  0  0  0  0  0  0  0  0
  1  2  1  0
  2  3  1  0
  3  4  1  0
  4  5  1  0
  5  6  1  0
  6  7  1  0
  6  8  1  0
  8  9  1  0
  8 10  1  0
 10 11  1  0
 10  3  1  0
  1 12  1  0
  2 13  1  0
  2 14  1  0
  3 15  1  6
  4 16  1  0
  5 17  1  0
  5 18  1  0
  6 19  1  1
  7 20  1  0
  8 21  1  1
  9 22  1  0
 10 23  1  1
 11 24  1  0
M  END
$$$$
