@<TRIPOS>MOLECULE
*****
 24 24 0 0 0
SMALL
GASTEIGER

@<TRIPOS>ATOM
      1 O           2.9972    0.0108    0.0594 O.3     1  UNK1       -0.3934
      2 C           1.9723   -0.7893   -0.4834 C.3     1  UNK1        0.0620
      3 C           0.7415    0.0714   -0.8021 C.3     1  UNK1        0.0596
      4 N          -0.2512   -0.7595   -1.3382 N.3     1  UNK1       -0.3064
      5 C          -1.1976   -1.3240   -0.4762 C.3     0  UNK0        0.0249
      6 C          -1.8735   -0.2195    0.3190 C.3     1  UNK1        0.0959
      7 O          -2.5947    0.6396   -0.4765 O.3     1  UNK1       -0.3879
      8 C          -0.8100    0.4533    1.1389 C.3     1  UNK1        0.1095
      9 O          -0.4969   -0.4142    2.1960 O.3     1  UNK1       -0.3866
     10 C           0.3691    0.9053    0.3674 C.3     1  UNK1        0.1009
     11 O           0.1999    2.2549   -0.0077 O.3     1  UNK1       -0.3875
     12 H           3.3340    0.6007   -0.6610 H       1  UNK1        0.2095
     13 H           1.7083   -1.6001    0.2419 H       1  UNK1        0.0573
     14 H           2.3609   -1.2166   -1.4138 H       1  UNK1        0.0573
     15 H           1.0997    0.7708   -1.6139 H       1  UNK1        0.0509
     16 H          -0.4472   -0.7199   -2.3326 H       1  UNK1        0.1224
     17 H          -1.9337   -1.9120   -1.0267 H       0  UNK0        0.0450
     18 H          -0.6813   -1.9755    0.2877 H       0  UNK0        0.0450
     19 H          -2.5882   -0.7226    1.0063 H       1  UNK1        0.0633
     20 H          -2.1875    0.8116   -1.3407 H       1  UNK1        0.2099
     21 H          -1.2839    1.3470    1.6168 H       1  UNK1        0.0646
     22 H           0.0554    0.0207    2.8748 H       1  UNK1        0.2100
     23 H           1.2503    0.9250    1.0742 H       1  UNK1        0.0636
     24 H           0.2571    2.8421    0.7904 H       1  UNK1        0.2100
@<TRIPOS>BOND
     1     1     2    1
     2     2     3    1
     3     3     4    1
     4     4     5    1
     5     5     6    1
     6     6     7    1
     7     6     8    1
     8     8     9    1
     9     8    10    1
    10    10    11    1
    11    10     3    1
    12     1    12    1
    13     2    13    1
    14     2    14    1
    15     3    15    1
    16     4    16    1
    17     5    17    1
    18     5    18    1
    19     6    19    1
    20     7    20    1
    21     8    21    1
    22     9    22    1
    23    10    23    1
    24    11    24    1
