@<TRIPOS>MOLECULE
*****
 47 48 0 0 0
SMALL
GASTEIGER

@<TRIPOS>ATOM
      1 C          -2.5323   -3.4405   -1.1211 C.3     1  UNL1       -0.0612
      2 C          -1.4910   -2.5212   -1.6875 C.3     1  UNL1       -0.0288
      3 C          -0.9154   -1.6120   -0.6656 C.ar    1  UNL1       -0.0264
      4 C           0.3368   -1.7895   -0.1077 C.ar    1  UNL1       -0.0533
      5 C           0.8410   -0.9269    0.8386 C.ar    1  UNL1       -0.0423
      6 C           2.1890   -1.1560    1.3826 C.3     1  UNL1        0.0023
      7 C           3.2298   -0.3242    0.7903 C.ar    1  UNL1        0.0146
      8 C           3.7407    0.8112    1.4099 C.ar    1  UNL1        0.0379
      9 N           4.6892    1.5565    0.8186 N.ar    1  UNL1       -0.2227
     10 C           5.1878    1.2444   -0.3923 C.ar    1  UNL1        0.2142
     11 N           6.1827    2.0101   -1.0374 N.pl3   1  UNL1       -0.3274
     12 N           4.7159    0.1639   -1.0043 N.ar    1  UNL1       -0.1999
     13 C           3.7518   -0.6215   -0.4387 C.ar    1  UNL1        0.1247
     14 N           3.3669   -1.7390   -1.2156 N.pl3   1  UNL1       -0.3428
     15 C           0.0441    0.1214    1.2072 C.ar    1  UNL1       -0.0531
     16 C          -1.2349    0.3478    0.6725 C.ar    1  UNL1       -0.0234
     17 C          -2.0215    1.4995    1.1083 C.3     1  UNL1       -0.0172
     18 C          -3.1574    1.0405    2.0199 C.3     1  UNL1       -0.0583
     19 C          -2.5740    2.3592    0.0206 C.3     1  UNL1       -0.0493
     20 C          -3.3557    3.5113    0.6778 C.3     1  UNL1       -0.0647
     21 C          -1.7130   -0.5292   -0.2706 C.ar    1  UNL1        0.0312
     22 N          -2.9999   -0.3734   -0.8442 N.pl3   1  UNL1       -0.3575
     23 H          -3.3299   -3.5514   -1.8960 H       1  UNL1        0.0233
     24 H          -3.0070   -3.0569   -0.1943 H       1  UNL1        0.0233
     25 H          -2.1091   -4.4512   -0.9268 H       1  UNL1        0.0233
     26 H          -1.8979   -1.9406   -2.5619 H       1  UNL1        0.0311
     27 H          -0.6405   -3.1217   -2.0776 H       1  UNL1        0.0311
     28 H           0.8999   -2.6595   -0.4547 H       1  UNL1        0.0624
     29 H           2.1644   -0.9767    2.4837 H       1  UNL1        0.0363
     30 H           2.4606   -2.2276    1.1742 H       1  UNL1        0.0363
     31 H           3.3614    1.0872    2.3799 H       1  UNL1        0.0834
     32 H           7.1700    1.8656   -0.7822 H       1  UNL1        0.1452
     33 H           5.9303    2.7039   -1.7548 H       1  UNL1        0.1452
     34 H           2.6408   -1.6373   -1.9330 H       1  UNL1        0.1437
     35 H           3.8138   -2.6633   -1.0663 H       1  UNL1        0.1437
     36 H           0.4285    0.8042    1.9482 H       1  UNL1        0.0624
     37 H          -1.3483    2.1151    1.7713 H       1  UNL1        0.0347
     38 H          -3.2112    1.6459    2.9536 H       1  UNL1        0.0236
     39 H          -3.0241   -0.0450    2.2214 H       1  UNL1        0.0236
     40 H          -4.1427    1.1404    1.5306 H       1  UNL1        0.0236
     41 H          -1.7419    2.8128   -0.5743 H       1  UNL1        0.0268
     42 H          -3.2795    1.8857   -0.6663 H       1  UNL1        0.0268
     43 H          -2.6028    4.2901    0.9086 H       1  UNL1        0.0230
     44 H          -3.7199    3.1249    1.6442 H       1  UNL1        0.0230
     45 H          -4.1430    3.8602    0.0111 H       1  UNL1        0.0230
     46 H          -3.8304   -0.4466   -0.2348 H       1  UNL1        0.1423
     47 H          -3.1220   -0.1909   -1.8483 H       1  UNL1        0.1423
@<TRIPOS>BOND
     1     1     2    1
     2     2     3    1
     3     3     4   ar
     4     4     5   ar
     5     5     6    1
     6     6     7    1
     7     7     8   ar
     8     8     9   ar
     9     9    10   ar
    10    10    11    1
    11    10    12   ar
    12    12    13   ar
    13    13    14    1
    14     5    15   ar
    15    15    16   ar
    16    16    17    1
    17    17    18    1
    18    17    19    1
    19    19    20    1
    20    16    21   ar
    21    21    22    1
    22    21     3   ar
    23    13     7   ar
    24     1    23    1
    25     1    24    1
    26     1    25    1
    27     2    26    1
    28     2    27    1
    29     4    28    1
    30     6    29    1
    31     6    30    1
    32     8    31    1
    33    11    32    1
    34    11    33    1
    35    14    34    1
    36    14    35    1
    37    15    36    1
    38    17    37    1
    39    18    38    1
    40    18    39    1
    41    18    40    1
    42    19    41    1
    43    19    42    1
    44    20    43    1
    45    20    44    1
    46    20    45    1
    47    22    46    1
    48    22    47    1
