
     RDKit          3D

 47 48  0  0  0  0  0  0  0  0999 V2000
   -2.5323   -3.4405   -1.1211 C   0  0  0  0  0  0  0  0  0  0  0  0
   -1.4910   -2.5212   -1.6875 C   0  0  0  0  0  0  0  0  0  0  0  0
   -0.9154   -1.6120   -0.6656 C   0  0  0  0  0  0  0  0  0  0  0  0
    0.3368   -1.7895   -0.1077 C   0  0  0  0  0  0  0  0  0  0  0  0
    0.8410   -0.9269    0.8386 C   0  0  0  0  0  0  0  0  0  0  0  0
    2.1890   -1.1560    1.3826 C   0  0  0  0  0  0  0  0  0  0  0  0
    3.2298   -0.3242    0.7903 C   0  0  0  0  0  0  0  0  0  0  0  0
    3.7407    0.8112    1.4099 C   0  0  0  0  0  0  0  0  0  0  0  0
    4.6892    1.5565    0.8186 N   0  0  0  0  0  0  0  0  0  0  0  0
    5.1878    1.2444   -0.3923 C   0  0  0  0  0  0  0  0  0  0  0  0
    6.1827    2.0101   -1.0374 N   0  0  0  0  0  0  0  0  0  0  0  0
    4.7159    0.1639   -1.0043 N   0  0  0  0  0  0  0  0  0  0  0  0
    3.7518   -0.6215   -0.4387 C   0  0  0  0  0  0  0  0  0  0  0  0
    3.3669   -1.7390   -1.2156 N   0  0  0  0  0  0  0  0  0  0  0  0
    0.0441    0.1214    1.2072 C   0  0  0  0  0  0  0  0  0  0  0  0
   -1.2349    0.3478    0.6725 C   0  0  0  0  0  0  0  0  0  0  0  0
   -2.0215    1.4995    1.1083 C   0  0  0  0  0  0  0  0  0  0  0  0
   -3.1574    1.0405    2.0199 C   0  0  0  0  0  0  0  0  0  0  0  0
   -2.5740    2.3592    0.0206 C   0  0  0  0  0  0  0  0  0  0  0  0
   -3.3557    3.5113    0.6778 C   0  0  0  0  0  0  0  0  0  0  0  0
   -1.7130   -0.5292   -0.2706 C   0  0  0  0  0  0  0  0  0  0  0  0
   -2.9999   -0.3734   -0.8442 N   0  0  0  0  0  0  0  0  0  0  0  0
   -3.3299   -3.5514   -1.8960 H   0  0  0  0  0  0  0  0  0  0  0  0
   -3.0070   -3.0569   -0.1943 H   0  0  0  0  0  0  0  0  0  0  0  0
   -2.1091   -4.4512   -0.9268 H   0  0  0  0  0  0  0  0  0  0  0  0
   -1.8979   -1.9406   -2.5619 H   0  0  0  0  0  0  0  0  0  0  0  0
   -0.6405   -3.1217   -2.0776 H   0  0  0  0  0  0  0  0  0  0  0  0
    0.8999   -2.6595   -0.4547 H   0  0  0  0  0  0  0  0  0  0  0  0
    2.1644   -0.9767    2.4837 H   0  0  0  0  0  0  0  0  0  0  0  0
    2.4606   -2.2276    1.1742 H   0  0  0  0  0  0  0  0  0  0  0  0
    3.3614    1.0872    2.3799 H   0  0  0  0  0  0  0  0  0  0  0  0
    7.1700    1.8656   -0.7822 H   0  0  0  0  0  0  0  0  0  0  0  0
    5.9303    2.7039   -1.7548 H   0  0  0  0  0  0  0  0  0  0  0  0
    2.6408   -1.6373   -1.9330 H   0  0  0  0  0  0  0  0  0  0  0  0
    3.8138   -2.6633   -1.0663 H   0  0  0  0  0  0  0  0  0  0  0  0
    0.4285    0.8042    1.9482 H   0  0  0  0  0  0  0  0  0  0  0  0
   -1.3483    2.1151    1.7713 H   0  0  0  0  0  0  0  0  0  0  0  0
   -3.2112    1.6459    2.9536 H   0  0  0  0  0  0  0  0  0  0  0  0
   -3.0241   -0.0450    2.2214 H   0  0  0  0  0  0  0  0  0  0  0  0
   -4.1427    1.1404    1.5306 H   0  0  0  0  0  0  0  0  0  0  0  0
   -1.7419    2.8128   -0.5743 H   0  0  0  0  0  0  0  0  0  0  0  0
   -3.2795    1.8857   -0.6663 H   0  0  0  0  0  0  0  0  0  0  0  0
   -2.6028    4.2901    0.9086 H   0  0  0  0  0  0  0  0  0  0  0  0
   -3.7199    3.1249    1.6442 H   0  0  0  0  0  0  0  0  0  0  0  0
   -4.1430    3.8602    0.0111 H   0  0  0  0  0  0  0  0  0  0  0  0
   -3.8304   -0.4466   -0.2348 H   0  0  0  0  0  0  0  0  0  0  0  0
   -3.1220   -0.1909   -1.8483 H   0  0  0  0  0  0  0  0  0  0  0  0
  1  2  1  0
  2  3  1  0
  3  4  2  0
  4  5  1  0
  5  6  1  0
  6  7  1  0
  7  8  2  0
  8  9  1  0
  9 10  2  0
 10 11  1  0
 10 12  1  0
 12 13  2  0
 13 14  1  0
  5 15  2  0
 15 16  1  0
 16 17  1  0
 17 18  1  0
 17 19  1  0
 19 20  1  0
 16 21  2  0
 21 22  1  0
 21  3  1  0
 13  7  1  0
  1 23  1  0
  1 24  1  0
  1 25  1  0
  2 26  1  0
  2 27  1  0
  4 28  1  0
  6 29  1  0
  6 30  1  0
  8 31  1  0
 11 32  1  0
 11 33  1  0
 14 34  1  0
 14 35  1  0
 15 36  1  0
 17 37  1  0
 18 38  1  0
 18 39  1  0
 18 40  1  0
 19 41  1  0
 19 42  1  0
 20 43  1  0
 20 44  1  0
 20 45  1  0
 22 46  1  0
 22 47  1  0
M  END
$$$$
