
     RDKit          3D

 49 54  0  0  0  0  0  0  0  0999 V2000
   -7.0083    0.1267   -2.5528 C   0  0  0  0  0  0  0  0  0  0  0  0
   -6.0499    0.9518   -1.9882 C   0  0  0  0  0  0  0  0  0  0  0  0
   -5.3492    0.5988   -0.8499 C   0  0  0  0  0  0  0  0  0  0  0  0
   -5.6086   -0.6151   -0.2510 C   0  0  0  0  0  0  0  0  0  0  0  0
   -4.9053   -0.9609    0.8851 C   0  0  0  0  0  0  0  0  0  0  0  0
   -3.8894   -0.0747    1.4754 C   0  0  0  0  0  0  0  0  0  0  0  0
   -4.1515    0.8856    2.4341 C   0  0  0  0  0  0  0  0  0  0  0  0
   -2.9806    1.4805    2.7161 N   0  0  0  0  0  0  0  0  0  0  0  0
   -2.0078    0.9544    1.9968 N   0  0  0  0  0  0  0  0  0  0  0  0
   -0.6900    1.2040    1.9216 C   0  0  0  0  0  0  0  0  0  0  0  0
    0.1435    0.5098    1.0778 C   0  0  0  0  0  0  0  0  0  0  0  0
    1.5866    0.8539    1.0615 C   0  0  0  0  0  0  0  0  0  0  0  0
    2.3666    1.5595    1.5382 N   0  0  0  0  0  0  0  0  0  0  0  0
    3.6659    1.6446    1.3135 C   0  0  0  0  0  0  0  0  0  0  0  0
    4.1663    0.7866    0.3944 C   0  0  0  0  0  0  0  0  0  0  0  0
    5.4484    0.5431   -0.1334 N   0  0  0  0  0  0  0  0  0  0  0  0
    5.6211   -0.4783   -1.1281 C   0  0  0  0  0  0  0  0  0  0  0  0
    6.9278   -1.1861   -0.9265 C   0  0  0  0  0  0  0  0  0  0  0  0
    8.0459   -0.2908   -0.9742 N   0  0  0  0  0  0  0  0  0  0  0  0
    7.6603    1.0957   -0.8168 C   0  0  0  0  0  0  0  0  0  0  0  0
    6.6245    1.2745    0.2745 C   0  0  0  0  0  0  0  0  0  0  0  0
    2.6772   -0.1421   -0.1248 S   0  0  0  0  0  0  0  0  0  0  0  0
   -0.4140   -0.4644    0.2978 C   0  0  0  0  0  0  0  0  0  0  0  0
   -1.7555   -0.7168    0.3759 N   0  0  0  0  0  0  0  0  0  0  0  0
   -2.5484   -0.0193    1.2133 C   0  0  0  0  0  0  0  0  0  0  0  0
   -5.2014   -2.1921    1.4515 C   0  0  0  0  0  0  0  0  0  0  0  0
   -6.1592   -2.9883    0.8657 C   0  0  0  0  0  0  0  0  0  0  0  0
   -6.8294   -2.6179   -0.2480 N   0  0  0  0  0  0  0  0  0  0  0  0
   -6.5694   -1.4414   -0.8177 C   0  0  0  0  0  0  0  0  0  0  0  0
   -7.2697   -1.0903   -1.9541 C   0  0  0  0  0  0  0  0  0  0  0  0
   -7.5139    0.4673   -3.4393 H   0  0  0  0  0  0  0  0  0  0  0  0
   -5.8177    1.9228   -2.4366 H   0  0  0  0  0  0  0  0  0  0  0  0
   -4.6008    1.2350   -0.4027 H   0  0  0  0  0  0  0  0  0  0  0  0
   -5.1425    1.0696    2.8380 H   0  0  0  0  0  0  0  0  0  0  0  0
   -0.2674    1.9789    2.5470 H   0  0  0  0  0  0  0  0  0  0  0  0
    4.3037    2.3712    1.8433 H   0  0  0  0  0  0  0  0  0  0  0  0
    5.6181   -0.0793   -2.1634 H   0  0  0  0  0  0  0  0  0  0  0  0
    4.8167   -1.2195   -1.0133 H   0  0  0  0  0  0  0  0  0  0  0  0
    7.0446   -1.8900   -1.8002 H   0  0  0  0  0  0  0  0  0  0  0  0
    6.9303   -1.8565   -0.0332 H   0  0  0  0  0  0  0  0  0  0  0  0
    8.7527   -0.5284   -0.2418 H   0  0  0  0  0  0  0  0  0  0  0  0
    7.1955    1.4450   -1.7633 H   0  0  0  0  0  0  0  0  0  0  0  0
    8.5489    1.7241   -0.6238 H   0  0  0  0  0  0  0  0  0  0  0  0
    6.4081    2.3814    0.3002 H   0  0  0  0  0  0  0  0  0  0  0  0
    7.0081    0.9377    1.2650 H   0  0  0  0  0  0  0  0  0  0  0  0
    0.2120   -1.0238   -0.3715 H   0  0  0  0  0  0  0  0  0  0  0  0
   -4.6534   -2.4631    2.3378 H   0  0  0  0  0  0  0  0  0  0  0  0
   -6.3692   -3.9498    1.3344 H   0  0  0  0  0  0  0  0  0  0  0  0
   -8.0206   -1.7133   -2.4143 H   0  0  0  0  0  0  0  0  0  0  0  0
  1  2  2  0
  2  3  1  0
  3  4  2  0
  4  5  1  0
  5  6  1  0
  6  7  1  0
  7  8  2  0
  8  9  1  0
  9 10  1  0
 10 11  2  0
 11 12  1  0
 12 13  2  0
 13 14  1  0
 14 15  2  0
 15 16  1  0
 16 17  1  0
 17 18  1  0
 18 19  1  0
 19 20  1  0
 20 21  1  0
 15 22  1  0
 11 23  1  0
 23 24  2  0
 24 25  1  0
  5 26  2  0
 26 27  1  0
 27 28  2  0
 28 29  1  0
 29 30  2  0
 30  1  1  0
 29  4  1  0
 25  6  2  0
 25  9  1  0
 22 12  1  0
 21 16  1  0
  1 31  1  0
  2 32  1  0
  3 33  1  0
  7 34  1  0
 10 35  1  0
 14 36  1  0
 17 37  1  0
 17 38  1  0
 18 39  1  0
 18 40  1  0
 19 41  1  0
 20 42  1  0
 20 43  1  0
 21 44  1  0
 21 45  1  0
 23 46  1  0
 26 47  1  0
 27 48  1  0
 30 49  1  0
M  END
$$$$
