@<TRIPOS>MOLECULE
*****
 49 54 0 0 0
SMALL
GASTEIGER

@<TRIPOS>ATOM
      1 C          -7.0083    0.1267   -2.5528 C.ar    1  UNL1       -0.0597
      2 C          -6.0499    0.9518   -1.9882 C.ar    1  UNL1       -0.0611
      3 C          -5.3492    0.5988   -0.8499 C.ar    1  UNL1       -0.0520
      4 C          -5.6086   -0.6151   -0.2510 C.ar    1  UNL1        0.0082
      5 C          -4.9053   -0.9609    0.8851 C.ar    1  UNL1       -0.0022
      6 C          -3.8894   -0.0747    1.4754 C.ar    1  UNL1        0.0467
      7 C          -4.1515    0.8856    2.4341 C.ar    1  UNL1        0.0597
      8 N          -2.9806    1.4805    2.7161 N.ar    1  UNL1       -0.1727
      9 N          -2.0078    0.9544    1.9968 N.ar    1  UNL1       -0.2205
     10 C          -0.6900    1.2040    1.9216 C.ar    1  UNL1        0.0426
     11 C           0.1435    0.5098    1.0778 C.ar    1  UNL1        0.0434
     12 C           1.5866    0.8539    1.0615 C.ar    1  UNL1        0.1128
     13 N           2.3666    1.5595    1.5382 N.ar    1  UNL1       -0.2453
     14 C           3.6659    1.6446    1.3135 C.ar    1  UNL1        0.0567
     15 C           4.1663    0.7866    0.3944 C.ar    1  UNL1        0.0884
     16 N           5.4484    0.5431   -0.1334 N.pl3   1  UNL1       -0.3209
     17 C           5.6211   -0.4783   -1.1281 C.3     1  UNL1        0.0252
     18 C           6.9278   -1.1861   -0.9265 C.3     1  UNL1        0.0117
     19 N           8.0459   -0.2908   -0.9742 N.3     1  UNL1       -0.3130
     20 C           7.6603    1.0957   -0.8168 C.3     1  UNL1        0.0117
     21 C           6.6245    1.2745    0.2745 C.3     1  UNL1        0.0252
     22 S           2.6772   -0.1421   -0.1248 S.2     1  UNL1       -0.0524
     23 C          -0.4140   -0.4644    0.2978 C.ar    1  UNL1        0.0411
     24 N          -1.7555   -0.7168    0.3759 N.ar    1  UNL1       -0.2349
     25 C          -2.5484   -0.0193    1.2133 C.ar    1  UNL1        0.1632
     26 C          -5.2014   -2.1921    1.4515 C.ar    1  UNL1       -0.0351
     27 C          -6.1592   -2.9883    0.8657 C.ar    1  UNL1        0.0288
     28 N          -6.8294   -2.6179   -0.2480 N.ar    1  UNL1       -0.2549
     29 C          -6.5694   -1.4414   -0.8177 C.ar    1  UNL1        0.0715
     30 C          -7.2697   -1.0903   -1.9541 C.ar    1  UNL1       -0.0357
     31 H          -7.5139    0.4673   -3.4393 H       1  UNL1        0.0618
     32 H          -5.8177    1.9228   -2.4366 H       1  UNL1        0.0618
     33 H          -4.6008    1.2350   -0.4027 H       1  UNL1        0.0624
     34 H          -5.1425    1.0696    2.8380 H       1  UNL1        0.0855
     35 H          -0.2674    1.9789    2.5470 H       1  UNL1        0.0838
     36 H           4.3037    2.3712    1.8433 H       1  UNL1        0.0854
     37 H           5.6181   -0.0793   -2.1634 H       1  UNL1        0.0476
     38 H           4.8167   -1.2195   -1.0133 H       1  UNL1        0.0476
     39 H           7.0446   -1.8900   -1.8002 H       1  UNL1        0.0439
     40 H           6.9303   -1.8565   -0.0332 H       1  UNL1        0.0439
     41 H           8.7527   -0.5284   -0.2418 H       1  UNL1        0.1220
     42 H           7.1955    1.4450   -1.7633 H       1  UNL1        0.0439
     43 H           8.5489    1.7241   -0.6238 H       1  UNL1        0.0439
     44 H           6.4081    2.3814    0.3002 H       1  UNL1        0.0476
     45 H           7.0081    0.9377    1.2650 H       1  UNL1        0.0476
     46 H           0.2120   -1.0238   -0.3715 H       1  UNL1        0.0837
     47 H          -4.6534   -2.4631    2.3378 H       1  UNL1        0.0639
     48 H          -6.3692   -3.9498    1.3344 H       1  UNL1        0.0830
     49 H          -8.0206   -1.7133   -2.4143 H       1  UNL1        0.0639
@<TRIPOS>BOND
     1     1     2   ar
     2     2     3   ar
     3     3     4   ar
     4     4     5   ar
     5     5     6    1
     6     6     7   ar
     7     7     8   ar
     8     8     9   ar
     9     9    10   ar
    10    10    11   ar
    11    11    12    1
    12    12    13   ar
    13    13    14   ar
    14    14    15   ar
    15    15    16    1
    16    16    17    1
    17    17    18    1
    18    18    19    1
    19    19    20    1
    20    20    21    1
    21    15    22   ar
    22    11    23   ar
    23    23    24   ar
    24    24    25   ar
    25     5    26   ar
    26    26    27   ar
    27    27    28   ar
    28    28    29   ar
    29    29    30   ar
    30    30     1   ar
    31    29     4   ar
    32    25     6   ar
    33    25     9   ar
    34    22    12   ar
    35    21    16    1
    36     1    31    1
    37     2    32    1
    38     3    33    1
    39     7    34    1
    40    10    35    1
    41    14    36    1
    42    17    37    1
    43    17    38    1
    44    18    39    1
    45    18    40    1
    46    19    41    1
    47    20    42    1
    48    20    43    1
    49    21    44    1
    50    21    45    1
    51    23    46    1
    52    26    47    1
    53    27    48    1
    54    30    49    1
