@<TRIPOS>MOLECULE
*****
 74 81 0 0 0
SMALL
GASTEIGER

@<TRIPOS>ATOM
      1 N          -9.7753    4.8485    0.7561 N.pl3   1  UNL1       -0.3273
      2 C          -9.1537    3.6202    0.4072 C.ar    1  UNL1        0.2188
      3 N          -9.7941    2.5388   -0.0783 N.ar    1  UNL1       -0.1129
      4 N          -8.9172    1.5725   -0.2940 N.ar    1  UNL1       -0.1271
      5 C          -7.6906    2.0056    0.0464 C.ar    1  UNL1        0.1716
      6 C          -6.4663    1.3708    0.0023 C.ar    1  UNL1        0.0456
      7 C          -6.3188    0.0704   -0.4429 C.ar    1  UNL1       -0.0392
      8 C          -5.0906   -0.5693   -0.4875 C.ar    1  UNL1        0.0088
      9 C          -4.9475   -1.9414   -0.9591 C.ar    1  UNL1       -0.0158
     10 C          -4.4891   -2.9769   -0.1722 C.ar    1  UNL1       -0.0540
     11 C          -4.3674   -4.2668   -0.6539 C.ar    1  UNL1       -0.0612
     12 C          -4.7056   -4.5660   -1.9582 C.ar    1  UNL1       -0.0617
     13 C          -5.1662   -3.5405   -2.7589 C.ar    1  UNL1       -0.0612
     14 C          -5.2828   -2.2502   -2.2604 C.ar    1  UNL1       -0.0540
     15 C          -3.9952    0.1553   -0.0619 C.ar    1  UNL1        0.0794
     16 C          -2.6748   -0.4635   -0.0837 C.ar    1  UNL1        0.0010
     17 C          -2.0376   -0.8920   -1.2239 C.ar    1  UNL1       -0.0522
     18 C          -0.7902   -1.4710   -1.1952 C.ar    1  UNL1       -0.0567
     19 C          -0.1129   -1.6483    0.0115 C.ar    1  UNL1       -0.0333
     20 C           1.2290   -2.2833    0.0058 C.3     1  UNL1        0.0240
     21 N           2.2572   -1.3194   -0.1792 N.3     1  UNL1       -0.2981
     22 C           3.5865   -1.8798   -0.2089 C.3     1  UNL1       -0.0001
     23 C           4.3454   -1.6981    1.0607 C.3     1  UNL1       -0.0304
     24 C           4.3889   -0.3115    1.6042 C.3     1  UNL1        0.0212
     25 C           5.7670    0.2162    1.6939 C.ar    1  UNL1        0.1344
     26 N           6.3557    0.6271    2.8231 N.ar    1  UNL1       -0.1339
     27 N           7.5843    1.0315    2.5287 N.ar    1  UNL1       -0.1278
     28 C           7.7967    0.8843    1.2068 C.ar    1  UNL1        0.1800
     29 C           9.0264    1.2185    0.5086 C.ar    1  UNL1        0.1077
     30 C          10.1255    1.7332    1.1454 C.ar    1  UNL1       -0.0326
     31 C          11.2942    2.0476    0.4697 C.ar    1  UNL1       -0.0582
     32 C          11.3723    1.8418   -0.8924 C.ar    1  UNL1       -0.0436
     33 C          10.2490    1.3219   -1.5074 C.ar    1  UNL1        0.0284
     34 N           9.1202    1.0234   -0.8255 N.ar    1  UNL1       -0.2519
     35 N           6.6598    0.3801    0.7185 N.ar    1  UNL1       -0.3237
     36 C           3.5048    0.5736    0.7404 C.3     1  UNL1       -0.0304
     37 C           2.1707   -0.1449    0.6546 C.3     1  UNL1       -0.0001
     38 C          -0.7290   -1.2299    1.1506 C.ar    1  UNL1       -0.0567
     39 C          -1.9968   -0.6435    1.1026 C.ar    1  UNL1       -0.0522
     40 N          -4.1482    1.4403    0.3769 N.ar    1  UNL1       -0.2459
     41 C          -5.3373    2.0517    0.4173 C.ar    1  UNL1        0.0766
     42 C          -5.5051    3.3485    0.8587 C.ar    1  UNL1       -0.0189
     43 C          -6.7651    3.9477    0.8845 C.ar    1  UNL1        0.0164
     44 N          -7.8558    3.2697    0.4764 N.ar    1  UNL1       -0.2704
     45 H         -10.1248    5.4543   -0.0157 H       1  UNL1        0.1452
     46 H          -9.9116    5.1965    1.7285 H       1  UNL1        0.1452
     47 H          -7.1834   -0.4966   -0.7771 H       1  UNL1        0.0632
     48 H          -4.2248   -2.7558    0.8383 H       1  UNL1        0.0624
     49 H          -4.0100   -5.0919   -0.0525 H       1  UNL1        0.0618
     50 H          -4.6078   -5.5799   -2.3300 H       1  UNL1        0.0618
     51 H          -5.4276   -3.7887   -3.7782 H       1  UNL1        0.0618
     52 H          -5.6439   -1.4813   -2.9121 H       1  UNL1        0.0624
     53 H          -2.5406   -0.7658   -2.1680 H       1  UNL1        0.0624
     54 H          -0.3189   -1.7940   -2.0920 H       1  UNL1        0.0621
     55 H           1.3532   -2.8505    0.9531 H       1  UNL1        0.0476
     56 H           1.2793   -3.0276   -0.8113 H       1  UNL1        0.0476
     57 H           3.4550   -2.9841   -0.3567 H       1  UNL1        0.0427
     58 H           4.1182   -1.5232   -1.1042 H       1  UNL1        0.0427
     59 H           4.0127   -2.4471    1.8349 H       1  UNL1        0.0284
     60 H           5.4123   -1.9956    0.8311 H       1  UNL1        0.0284
     61 H           3.9019   -0.3362    2.6103 H       1  UNL1        0.0380
     62 H          10.0920    1.9038    2.2079 H       1  UNL1        0.0640
     63 H          12.1571    2.4534    0.9809 H       1  UNL1        0.0619
     64 H          12.2830    2.0861   -1.4226 H       1  UNL1        0.0633
     65 H          10.2636    1.1442   -2.5715 H       1  UNL1        0.0830
     66 H           6.5262    0.1566   -0.3014 H       1  UNL1        0.1686
     67 H           3.3339    1.5121    1.2898 H       1  UNL1        0.0284
     68 H           3.9369    0.7488   -0.2630 H       1  UNL1        0.0284
     69 H           1.3617    0.4977    0.2974 H       1  UNL1        0.0427
     70 H           1.9293   -0.4649    1.6859 H       1  UNL1        0.0427
     71 H          -0.2305   -1.3565    2.1110 H       1  UNL1        0.0621
     72 H          -2.4098   -0.3420    2.0479 H       1  UNL1        0.0624
     73 H          -4.6363    3.9166    1.1939 H       1  UNL1        0.0654
     74 H          -6.8666    4.9687    1.2364 H       1  UNL1        0.0815
@<TRIPOS>BOND
     1     1     2    1
     2     2     3   ar
     3     3     4   ar
     4     4     5   ar
     5     5     6   ar
     6     6     7   ar
     7     7     8   ar
     8     8     9    1
     9     9    10   ar
    10    10    11   ar
    11    11    12   ar
    12    12    13   ar
    13    13    14   ar
    14     8    15   ar
    15    15    16    1
    16    16    17   ar
    17    17    18   ar
    18    18    19   ar
    19    19    20    1
    20    20    21    1
    21    21    22    1
    22    22    23    1
    23    23    24    1
    24    24    25    1
    25    25    26   ar
    26    26    27   ar
    27    27    28   ar
    28    28    29    1
    29    29    30   ar
    30    30    31   ar
    31    31    32   ar
    32    32    33   ar
    33    33    34   ar
    34    28    35   ar
    35    24    36    1
    36    36    37    1
    37    19    38   ar
    38    38    39   ar
    39    15    40   ar
    40    40    41   ar
    41    41    42   ar
    42    42    43   ar
    43    43    44   ar
    44    44     2   ar
    45    44     5   ar
    46    41     6   ar
    47    14     9   ar
    48    39    16   ar
    49    37    21    1
    50    35    25   ar
    51    34    29   ar
    52     1    45    1
    53     1    46    1
    54     7    47    1
    55    10    48    1
    56    11    49    1
    57    12    50    1
    58    13    51    1
    59    14    52    1
    60    17    53    1
    61    18    54    1
    62    20    55    1
    63    20    56    1
    64    22    57    1
    65    22    58    1
    66    23    59    1
    67    23    60    1
    68    24    61    1
    69    30    62    1
    70    31    63    1
    71    32    64    1
    72    33    65    1
    73    35    66    1
    74    36    67    1
    75    36    68    1
    76    37    69    1
    77    37    70    1
    78    38    71    1
    79    39    72    1
    80    42    73    1
    81    43    74    1
