@<TRIPOS>MOLECULE
*****
 56 58 0 0 0
SMALL
GASTEIGER

@<TRIPOS>ATOM
      1 C          -3.4854    6.0727   -0.2351 C.3     1  UNL1       -0.0319
      2 C          -2.6123    4.8855   -0.3225 C.ar    1  UNL1        0.0068
      3 C          -1.3027    4.7087   -0.6353 C.ar    1  UNL1        0.0383
      4 N          -0.8657    3.4705   -0.6060 N.ar    1  UNL1       -0.2471
      5 C          -1.4327    2.4914   -0.3509 C.ar    1  UNL1        0.1086
      6 C          -1.2680    1.0143   -0.2253 C.ar    1  UNL1        0.0113
      7 C          -2.2960    0.1799    0.1306 C.ar    1  UNL1       -0.0102
      8 C          -2.0947   -1.1800    0.2336 C.ar    1  UNL1        0.1224
      9 O          -3.0840   -2.0761    0.5866 O.3     1  UNL1       -0.4865
     10 C          -4.4079   -1.8021    0.8920 C.3     1  UNL1        0.1228
     11 C          -4.6712   -2.3874    2.2876 C.3     1  UNL1       -0.0253
     12 C          -5.2792   -2.5958   -0.0615 C.3     1  UNL1        0.0889
     13 C          -6.7387   -2.2579    0.0829 C.3     1  UNL1       -0.0355
     14 O          -5.0412   -3.9561    0.0722 O.3     1  UNL1       -0.3884
     15 C          -0.8170   -1.6304   -0.0400 C.ar    1  UNL1       -0.0078
     16 C           0.2348   -0.8283   -0.3982 C.ar    1  UNL1        0.0408
     17 C           1.5667   -1.3703   -0.6752 C.2     1  UNL1        0.2447
     18 O           1.7118   -2.6278   -0.5691 O.2     1  UNL1       -0.2702
     19 N           2.6859   -0.6209   -1.0450 N.am    1  UNL1       -0.3047
     20 C           3.9810   -1.2746   -1.2999 C.3     1  UNL1        0.0487
     21 C           4.2818   -1.0021   -2.7776 C.3     1  UNL1       -0.0423
     22 C           5.0416   -0.6838   -0.4556 C.ar    1  UNL1        0.0087
     23 C           5.9243   -1.5195    0.1929 C.ar    1  UNL1        0.0363
     24 N           6.9159   -1.0295    0.9802 N.ar    1  UNL1       -0.2321
     25 C           7.0439    0.3002    1.1338 C.ar    1  UNL1        0.2339
     26 C           8.1275    0.8828    1.9961 C.3     1  UNL1        0.4522
     27 F           7.6193    1.2545    3.2176 F       1  UNL1       -0.1632
     28 F           8.6975    1.9919    1.3629 F       1  UNL1       -0.1632
     29 F           9.1294   -0.0361    2.1895 F       1  UNL1       -0.1632
     30 N           6.1928    1.1195    0.5092 N.ar    1  UNL1       -0.2321
     31 C           5.1901    0.6710   -0.2850 C.ar    1  UNL1        0.0363
     32 C           0.0049    0.5280   -0.4936 C.ar    1  UNL1       -0.0397
     33 S          -3.1572    3.1818    0.0092 S.2     1  UNL1       -0.0725
     34 H          -4.5278    5.7332   -0.0886 H       1  UNL1        0.0283
     35 H          -3.4772    6.6879   -1.1565 H       1  UNL1        0.0283
     36 H          -3.1899    6.6366    0.6641 H       1  UNL1        0.0283
     37 H          -0.6681    5.5795   -0.8953 H       1  UNL1        0.0838
     38 H          -3.2585    0.5954    0.3281 H       1  UNL1        0.0661
     39 H          -4.6767   -0.7490    0.8410 H       1  UNL1        0.0756
     40 H          -4.0964   -3.3359    2.3291 H       1  UNL1        0.0266
     41 H          -5.7371   -2.6693    2.3959 H       1  UNL1        0.0266
     42 H          -4.3240   -1.6981    3.0631 H       1  UNL1        0.0266
     43 H          -4.9733   -2.3086   -1.0889 H       1  UNL1        0.0627
     44 H          -7.2646   -3.0413    0.6908 H       1  UNL1        0.0256
     45 H          -6.9321   -1.2580    0.4832 H       1  UNL1        0.0256
     46 H          -7.2592   -2.2986   -0.9189 H       1  UNL1        0.0256
     47 H          -5.2851   -4.3206    0.9484 H       1  UNL1        0.2099
     48 H          -0.6282   -2.6932    0.0325 H       1  UNL1        0.0662
     49 H           2.5910    0.4125   -1.1384 H       1  UNL1        0.1496
     50 H           3.8603   -2.3459   -1.1470 H       1  UNL1        0.0546
     51 H           3.3281   -1.2182   -3.3194 H       1  UNL1        0.0251
     52 H           4.5032    0.0888   -2.8326 H       1  UNL1        0.0251
     53 H           5.1152   -1.6381   -3.0919 H       1  UNL1        0.0251
     54 H           5.8112   -2.5884    0.0615 H       1  UNL1        0.0834
     55 H           4.5046    1.3222   -0.7885 H       1  UNL1        0.0834
     56 H           0.7895    1.2326   -0.7729 H       1  UNL1        0.0632
@<TRIPOS>BOND
     1     1     2    1
     2     2     3   ar
     3     3     4   ar
     4     4     5   ar
     5     5     6    1
     6     6     7   ar
     7     7     8   ar
     8     8     9    1
     9     9    10    1
    10    10    11    1
    11    10    12    1
    12    12    13    1
    13    12    14    1
    14     8    15   ar
    15    15    16   ar
    16    16    17    1
    17    17    18    2
    18    17    19   am
    19    19    20    1
    20    20    21    1
    21    20    22    1
    22    22    23   ar
    23    23    24   ar
    24    24    25   ar
    25    25    26    1
    26    26    27    1
    27    26    28    1
    28    26    29    1
    29    25    30   ar
    30    30    31   ar
    31    16    32   ar
    32     5    33   ar
    33    33     2   ar
    34    32     6   ar
    35    31    22   ar
    36     1    34    1
    37     1    35    1
    38     1    36    1
    39     3    37    1
    40     7    38    1
    41    10    39    1
    42    11    40    1
    43    11    41    1
    44    11    42    1
    45    12    43    1
    46    13    44    1
    47    13    45    1
    48    13    46    1
    49    14    47    1
    50    15    48    1
    51    19    49    1
    52    20    50    1
    53    21    51    1
    54    21    52    1
    55    21    53    1
    56    23    54    1
    57    31    55    1
    58    32    56    1
