
     RDKit          3D

 56 58  0  0  0  0  0  0  0  0999 V2000
   -3.4854    6.0727   -0.2351 C   0  0  0  0  0  0  0  0  0  0  0  0
   -2.6123    4.8855   -0.3225 C   0  0  0  0  0  0  0  0  0  0  0  0
   -1.3027    4.7087   -0.6353 C   0  0  0  0  0  0  0  0  0  0  0  0
   -0.8657    3.4705   -0.6060 N   0  0  0  0  0  0  0  0  0  0  0  0
   -1.4327    2.4914   -0.3509 C   0  0  0  0  0  0  0  0  0  0  0  0
   -1.2680    1.0143   -0.2253 C   0  0  0  0  0  0  0  0  0  0  0  0
   -2.2960    0.1799    0.1306 C   0  0  0  0  0  0  0  0  0  0  0  0
   -2.0947   -1.1800    0.2336 C   0  0  0  0  0  0  0  0  0  0  0  0
   -3.0840   -2.0761    0.5866 O   0  0  0  0  0  0  0  0  0  0  0  0
   -4.4079   -1.8021    0.8920 C   0  0  0  0  0  0  0  0  0  0  0  0
   -4.6712   -2.3874    2.2876 C   0  0  0  0  0  0  0  0  0  0  0  0
   -5.2792   -2.5958   -0.0615 C   0  0  0  0  0  0  0  0  0  0  0  0
   -6.7387   -2.2579    0.0829 C   0  0  0  0  0  0  0  0  0  0  0  0
   -5.0412   -3.9561    0.0722 O   0  0  0  0  0  0  0  0  0  0  0  0
   -0.8170   -1.6304   -0.0400 C   0  0  0  0  0  0  0  0  0  0  0  0
    0.2348   -0.8283   -0.3982 C   0  0  0  0  0  0  0  0  0  0  0  0
    1.5667   -1.3703   -0.6752 C   0  0  0  0  0  0  0  0  0  0  0  0
    1.7118   -2.6278   -0.5691 O   0  0  0  0  0  0  0  0  0  0  0  0
    2.6859   -0.6209   -1.0450 N   0  0  0  0  0  0  0  0  0  0  0  0
    3.9810   -1.2746   -1.2999 C   0  0  1  0  0  0  0  0  0  0  0  0
    4.2818   -1.0021   -2.7776 C   0  0  0  0  0  0  0  0  0  0  0  0
    5.0416   -0.6838   -0.4556 C   0  0  0  0  0  0  0  0  0  0  0  0
    5.9243   -1.5195    0.1929 C   0  0  0  0  0  0  0  0  0  0  0  0
    6.9159   -1.0295    0.9802 N   0  0  0  0  0  0  0  0  0  0  0  0
    7.0439    0.3002    1.1338 C   0  0  0  0  0  0  0  0  0  0  0  0
    8.1275    0.8828    1.9961 C   0  0  0  0  0  0  0  0  0  0  0  0
    7.6193    1.2545    3.2176 F   0  0  0  0  0  0  0  0  0  0  0  0
    8.6975    1.9919    1.3629 F   0  0  0  0  0  0  0  0  0  0  0  0
    9.1294   -0.0361    2.1895 F   0  0  0  0  0  0  0  0  0  0  0  0
    6.1928    1.1195    0.5092 N   0  0  0  0  0  0  0  0  0  0  0  0
    5.1901    0.6710   -0.2850 C   0  0  0  0  0  0  0  0  0  0  0  0
    0.0049    0.5280   -0.4936 C   0  0  0  0  0  0  0  0  0  0  0  0
   -3.1572    3.1818    0.0092 S   0  0  0  0  0  0  0  0  0  0  0  0
   -4.5278    5.7332   -0.0886 H   0  0  0  0  0  0  0  0  0  0  0  0
   -3.4772    6.6879   -1.1565 H   0  0  0  0  0  0  0  0  0  0  0  0
   -3.1899    6.6366    0.6641 H   0  0  0  0  0  0  0  0  0  0  0  0
   -0.6681    5.5795   -0.8953 H   0  0  0  0  0  0  0  0  0  0  0  0
   -3.2585    0.5954    0.3281 H   0  0  0  0  0  0  0  0  0  0  0  0
   -4.6767   -0.7490    0.8410 H   0  0  0  0  0  0  0  0  0  0  0  0
   -4.0964   -3.3359    2.3291 H   0  0  0  0  0  0  0  0  0  0  0  0
   -5.7371   -2.6693    2.3959 H   0  0  0  0  0  0  0  0  0  0  0  0
   -4.3240   -1.6981    3.0631 H   0  0  0  0  0  0  0  0  0  0  0  0
   -4.9733   -2.3086   -1.0889 H   0  0  0  0  0  0  0  0  0  0  0  0
   -7.2646   -3.0413    0.6908 H   0  0  0  0  0  0  0  0  0  0  0  0
   -6.9321   -1.2580    0.4832 H   0  0  0  0  0  0  0  0  0  0  0  0
   -7.2592   -2.2986   -0.9189 H   0  0  0  0  0  0  0  0  0  0  0  0
   -5.2851   -4.3206    0.9484 H   0  0  0  0  0  0  0  0  0  0  0  0
   -0.6282   -2.6932    0.0325 H   0  0  0  0  0  0  0  0  0  0  0  0
    2.5910    0.4125   -1.1384 H   0  0  0  0  0  0  0  0  0  0  0  0
    3.8603   -2.3459   -1.1470 H   0  0  0  0  0  0  0  0  0  0  0  0
    3.3281   -1.2182   -3.3194 H   0  0  0  0  0  0  0  0  0  0  0  0
    4.5032    0.0888   -2.8326 H   0  0  0  0  0  0  0  0  0  0  0  0
    5.1152   -1.6381   -3.0919 H   0  0  0  0  0  0  0  0  0  0  0  0
    5.8112   -2.5884    0.0615 H   0  0  0  0  0  0  0  0  0  0  0  0
    4.5046    1.3222   -0.7885 H   0  0  0  0  0  0  0  0  0  0  0  0
    0.7895    1.2326   -0.7729 H   0  0  0  0  0  0  0  0  0  0  0  0
  1  2  1  0
  2  3  2  0
  3  4  1  0
  4  5  2  0
  5  6  1  0
  6  7  2  0
  7  8  1  0
  8  9  1  0
  9 10  1  0
 10 11  1  0
 10 12  1  0
 12 13  1  0
 12 14  1  0
  8 15  2  0
 15 16  1  0
 16 17  1  0
 17 18  2  0
 17 19  1  0
 19 20  1  0
 20 21  1  0
 20 22  1  0
 22 23  2  0
 23 24  1  0
 24 25  2  0
 25 26  1  0
 26 27  1  0
 26 28  1  0
 26 29  1  0
 25 30  1  0
 30 31  2  0
 16 32  2  0
  5 33  1  0
 33  2  1  0
 32  6  1  0
 31 22  1  0
  1 34  1  0
  1 35  1  0
  1 36  1  0
  3 37  1  0
  7 38  1  0
 10 39  1  0
 11 40  1  0
 11 41  1  0
 11 42  1  0
 12 43  1  0
 13 44  1  0
 13 45  1  0
 13 46  1  0
 14 47  1  0
 15 48  1  0
 19 49  1  0
 20 50  1  6
 21 51  1  0
 21 52  1  0
 21 53  1  0
 23 54  1  0
 31 55  1  0
 32 56  1  0
M  END
$$$$
