
     RDKit          3D

 30 32  0  0  0  0  0  0  0  0999 V2000
    0.2491    0.1005   -1.7096 O   0  0  0  0  0  0  0  0  0  0  0  0
    0.5241   -0.0724   -0.4956 C   0  0  0  0  0  0  0  0  0  0  0  0
   -0.4403   -0.0706    0.4866 C   0  0  0  0  0  0  0  0  0  0  0  0
   -1.8412    0.1367    0.1383 C   0  0  0  0  0  0  0  0  0  0  0  0
   -2.8297   -0.6790    0.7003 C   0  0  0  0  0  0  0  0  0  0  0  0
   -4.1561   -0.5196    0.4016 C   0  0  0  0  0  0  0  0  0  0  0  0
   -4.5682    0.4593   -0.4717 C   0  0  0  0  0  0  0  0  0  0  0  0
   -5.9046    0.6451   -0.7938 O   0  0  0  0  0  0  0  0  0  0  0  0
   -3.6195    1.2874   -1.0490 C   0  0  0  0  0  0  0  0  0  0  0  0
   -2.2889    1.1055   -0.7307 C   0  0  0  0  0  0  0  0  0  0  0  0
   -0.0670   -0.2665    1.7985 C   0  0  0  0  0  0  0  0  0  0  0  0
    1.1688   -0.4490    2.1025 O   0  0  0  0  0  0  0  0  0  0  0  0
    2.1028   -0.4554    1.1911 C   0  0  0  0  0  0  0  0  0  0  0  0
    3.4423   -0.6561    1.5455 C   0  0  0  0  0  0  0  0  0  0  0  0
    4.3994   -0.6560    0.5544 C   0  0  0  0  0  0  0  0  0  0  0  0
    5.7192   -0.8567    0.9292 O   0  0  0  0  0  0  0  0  0  0  0  0
    4.1234   -0.4690   -0.7811 C   0  0  0  0  0  0  0  0  0  0  0  0
    2.7984   -0.2705   -1.1312 C   0  0  0  0  0  0  0  0  0  0  0  0
    2.4408   -0.0746   -2.4591 O   0  0  0  0  0  0  0  0  0  0  0  0
    1.8233   -0.2683   -0.1411 C   0  0  0  0  0  0  0  0  0  0  0  0
   -2.4947   -1.4441    1.3844 H   0  0  0  0  0  0  0  0  0  0  0  0
   -4.9126   -1.1531    0.8394 H   0  0  0  0  0  0  0  0  0  0  0  0
   -6.3911    1.5229   -0.5803 H   0  0  0  0  0  0  0  0  0  0  0  0
   -3.8770    2.0646   -1.7335 H   0  0  0  0  0  0  0  0  0  0  0  0
   -1.5542    1.7476   -1.1785 H   0  0  0  0  0  0  0  0  0  0  0  0
   -0.8741   -0.2576    2.5565 H   0  0  0  0  0  0  0  0  0  0  0  0
    3.6742   -0.8047    2.5935 H   0  0  0  0  0  0  0  0  0  0  0  0
    6.2600   -0.0657    1.2695 H   0  0  0  0  0  0  0  0  0  0  0  0
    4.8894   -0.4721   -1.5467 H   0  0  0  0  0  0  0  0  0  0  0  0
    2.2038    0.8918   -2.7313 H   0  0  0  0  0  0  0  0  0  0  0  0
  1  2  2  0
  2  3  1  0
  3  4  1  0
  4  5  2  0
  5  6  1  0
  6  7  2  0
  7  8  1  0
  7  9  1  0
  9 10  2  0
  3 11  2  0
 11 12  1  0
 12 13  1  0
 13 14  2  0
 14 15  1  0
 15 16  1  0
 15 17  2  0
 17 18  1  0
 18 19  1  0
 18 20  2  0
 20  2  1  0
 10  4  1  0
 20 13  1  0
  5 21  1  0
  6 22  1  0
  8 23  1  0
  9 24  1  0
 10 25  1  0
 11 26  1  0
 14 27  1  0
 16 28  1  0
 17 29  1  0
 19 30  1  0
M  END
$$$$
