@<TRIPOS>MOLECULE
*****
 30 32 0 0 0
SMALL
GASTEIGER

@<TRIPOS>ATOM
      1 O           0.2491    0.1005   -1.7096 O.2     1  UNL1       -0.2863
      2 C           0.5241   -0.0724   -0.4956 C.ar    1  UNL1        0.2037
      3 C          -0.4403   -0.0706    0.4866 C.ar    1  UNL1        0.0644
      4 C          -1.8412    0.1367    0.1383 C.ar    1  UNL1       -0.0110
      5 C          -2.8297   -0.6790    0.7003 C.ar    1  UNL1       -0.0504
      6 C          -4.1561   -0.5196    0.4016 C.ar    1  UNL1       -0.0196
      7 C          -4.5682    0.4593   -0.4717 C.ar    1  UNL1        0.1169
      8 O          -5.9046    0.6451   -0.7938 O.3     1  UNL1       -0.5068
      9 C          -3.6195    1.2874   -1.0490 C.ar    1  UNL1       -0.0196
     10 C          -2.2889    1.1055   -0.7307 C.ar    1  UNL1       -0.0504
     11 C          -0.0670   -0.2665    1.7985 C.ar    1  UNL1        0.1038
     12 O           1.1688   -0.4490    2.1025 O.2     1  UNL1       -0.4618
     13 C           2.1028   -0.4554    1.1911 C.ar    1  UNL1        0.1454
     14 C           3.4423   -0.6561    1.5455 C.ar    1  UNL1        0.0231
     15 C           4.3994   -0.6560    0.5544 C.ar    1  UNL1        0.1239
     16 O           5.7192   -0.8567    0.9292 O.3     1  UNL1       -0.5065
     17 C           4.1234   -0.4690   -0.7811 C.ar    1  UNL1        0.0223
     18 C           2.7984   -0.2705   -1.1312 C.ar    1  UNL1        0.1347
     19 O           2.4408   -0.0746   -2.4591 O.3     1  UNL1       -0.5058
     20 C           1.8233   -0.2683   -0.1411 C.ar    1  UNL1        0.1060
     21 H          -2.4947   -1.4441    1.3844 H       1  UNL1        0.0625
     22 H          -4.9126   -1.1531    0.8394 H       1  UNL1        0.0654
     23 H          -6.3911    1.5229   -0.5803 H       1  UNL1        0.2921
     24 H          -3.8770    2.0646   -1.7335 H       1  UNL1        0.0654
     25 H          -1.5542    1.7476   -1.1785 H       1  UNL1        0.0625
     26 H          -0.8741   -0.2576    2.5565 H       1  UNL1        0.1037
     27 H           3.6742   -0.8047    2.5935 H       1  UNL1        0.0691
     28 H           6.2600   -0.0657    1.2695 H       1  UNL1        0.2921
     29 H           4.8894   -0.4721   -1.5467 H       1  UNL1        0.0691
     30 H           2.2038    0.8918   -2.7313 H       1  UNL1        0.2922
@<TRIPOS>BOND
     1     1     2    2
     2     2     3   ar
     3     3     4    1
     4     4     5   ar
     5     5     6   ar
     6     6     7   ar
     7     7     8    1
     8     7     9   ar
     9     9    10   ar
    10     3    11   ar
    11    11    12   ar
    12    12    13   ar
    13    13    14   ar
    14    14    15   ar
    15    15    16    1
    16    15    17   ar
    17    17    18   ar
    18    18    19    1
    19    18    20   ar
    20    20     2   ar
    21    10     4   ar
    22    20    13   ar
    23     5    21    1
    24     6    22    1
    25     8    23    1
    26     9    24    1
    27    10    25    1
    28    11    26    1
    29    14    27    1
    30    16    28    1
    31    17    29    1
    32    19    30    1
