
     RDKit          3D

 65 69  0  0  0  0  0  0  0  0999 V2000
   -6.1649    2.3751   -0.4568 C   0  0  0  0  0  0  0  0  0  0  0  0
   -4.7904    2.1655   -0.4914 O   0  0  0  0  0  0  0  0  0  0  0  0
   -4.3888    1.5964    0.6844 C   0  0  0  0  0  0  0  0  0  0  0  0
   -3.2903    2.3597    1.3983 C   0  0  0  0  0  0  0  0  0  0  0  0
   -2.2903    1.5207    1.8587 O   0  0  0  0  0  0  0  0  0  0  0  0
   -2.7385    0.4832    2.6395 C   0  0  0  0  0  0  0  0  0  0  0  0
   -3.7358   -0.3580    1.9013 C   0  0  0  0  0  0  0  0  0  0  0  0
   -3.7906    0.1788    0.4559 C   0  0  0  0  0  0  0  0  0  0  0  0
   -2.4350    0.3048    0.0055 N   0  0  0  0  0  0  0  0  0  0  0  0
   -1.8179   -0.8489   -0.5470 C   0  0  2  0  0  0  0  0  0  0  0  0
   -1.7666   -2.0736    0.2781 C   0  0  0  0  0  0  0  0  0  0  0  0
   -0.6887   -2.8767   -0.4834 C   0  0  1  0  0  0  0  0  0  0  0  0
   -1.1775   -3.3827   -1.7954 C   0  0  0  0  0  0  0  0  0  0  0  0
   -0.2495   -2.8780   -2.8605 C   0  0  0  0  0  0  0  0  0  0  0  0
   -0.9545   -2.0758   -3.7339 F   0  0  0  0  0  0  0  0  0  0  0  0
    0.3481   -3.9116   -3.5628 F   0  0  0  0  0  0  0  0  0  0  0  0
    0.8625   -2.1203   -2.1702 C   0  0  0  0  0  0  0  0  0  0  0  0
    0.3580   -1.8175   -0.7757 C   0  0  2  0  0  0  0  0  0  0  0  0
    1.4368   -1.9642    0.2181 C   0  0  0  0  0  0  0  0  0  0  0  0
    1.2543   -2.8302    1.1526 O   0  0  0  0  0  0  0  0  0  0  0  0
    2.6310   -1.2106    0.1815 N   0  0  0  0  0  0  0  0  0  0  0  0
    3.5985   -1.4844    1.2614 C   0  0  0  0  0  0  0  0  0  0  0  0
    5.0060   -1.2319    0.6947 C   0  0  0  0  0  0  0  0  0  0  0  0
    4.9743    0.2313    0.3303 C   0  0  0  0  0  0  0  0  0  0  0  0
    5.9206    1.0920    0.7139 N   0  0  0  0  0  0  0  0  0  0  0  0
    5.8672    2.4067    0.3821 C   0  0  0  0  0  0  0  0  0  0  0  0
    4.8306    2.9212   -0.3696 C   0  0  0  0  0  0  0  0  0  0  0  0
    4.7949    4.3769   -0.7224 C   0  0  0  0  0  0  0  0  0  0  0  0
    3.5088    4.7987   -0.9975 F   0  0  0  0  0  0  0  0  0  0  0  0
    5.2389    5.1505    0.3490 F   0  0  0  0  0  0  0  0  0  0  0  0
    5.6180    4.6498   -1.7840 F   0  0  0  0  0  0  0  0  0  0  0  0
    3.8423    2.0495   -0.7766 C   0  0  0  0  0  0  0  0  0  0  0  0
    3.9250    0.6968   -0.4184 C   0  0  0  0  0  0  0  0  0  0  0  0
    2.8768   -0.2537   -0.8578 C   0  0  0  0  0  0  0  0  0  0  0  0
   -0.3386   -0.4916   -0.7534 C   0  0  0  0  0  0  0  0  0  0  0  0
   -6.5510    2.8345   -1.3826 H   0  0  0  0  0  0  0  0  0  0  0  0
   -6.4730    3.0580    0.3744 H   0  0  0  0  0  0  0  0  0  0  0  0
   -6.6962    1.4080   -0.2336 H   0  0  0  0  0  0  0  0  0  0  0  0
   -5.2566    1.4526    1.3520 H   0  0  0  0  0  0  0  0  0  0  0  0
   -3.6979    3.0358    2.1738 H   0  0  0  0  0  0  0  0  0  0  0  0
   -2.8206    3.0212    0.6288 H   0  0  0  0  0  0  0  0  0  0  0  0
   -1.8493   -0.1641    2.8542 H   0  0  0  0  0  0  0  0  0  0  0  0
   -3.1102    0.8174    3.6332 H   0  0  0  0  0  0  0  0  0  0  0  0
   -3.6107   -1.4275    1.9677 H   0  0  0  0  0  0  0  0  0  0  0  0
   -4.7406   -0.0925    2.3630 H   0  0  0  0  0  0  0  0  0  0  0  0
   -4.4289   -0.4108   -0.1917 H   0  0  0  0  0  0  0  0  0  0  0  0
   -2.4143    1.0551   -0.7207 H   0  0  0  0  0  0  0  0  0  0  0  0
   -2.2211   -1.0845   -1.5669 H   0  0  0  0  0  0  0  0  0  0  0  0
   -1.3642   -1.8943    1.2808 H   0  0  0  0  0  0  0  0  0  0  0  0
   -2.7053   -2.6771    0.2494 H   0  0  0  0  0  0  0  0  0  0  0  0
   -0.2863   -3.6479    0.1981 H   0  0  0  0  0  0  0  0  0  0  0  0
   -2.2360   -3.1331   -2.0103 H   0  0  0  0  0  0  0  0  0  0  0  0
   -1.0973   -4.4997   -1.7872 H   0  0  0  0  0  0  0  0  0  0  0  0
    1.0592   -1.1839   -2.7183 H   0  0  0  0  0  0  0  0  0  0  0  0
    1.7848   -2.7208   -2.1060 H   0  0  0  0  0  0  0  0  0  0  0  0
    3.4510   -0.7182    2.0478 H   0  0  0  0  0  0  0  0  0  0  0  0
    3.4906   -2.4908    1.6648 H   0  0  0  0  0  0  0  0  0  0  0  0
    5.1531   -1.8699   -0.1851 H   0  0  0  0  0  0  0  0  0  0  0  0
    5.7292   -1.4319    1.5042 H   0  0  0  0  0  0  0  0  0  0  0  0
    6.6479    3.1019    0.7022 H   0  0  0  0  0  0  0  0  0  0  0  0
    2.9991    2.4170   -1.3766 H   0  0  0  0  0  0  0  0  0  0  0  0
    3.2230   -0.8485   -1.7427 H   0  0  0  0  0  0  0  0  0  0  0  0
    1.9931    0.3552   -1.1433 H   0  0  0  0  0  0  0  0  0  0  0  0
   -0.2430    0.0779   -1.7140 H   0  0  0  0  0  0  0  0  0  0  0  0
   -0.0027    0.1126    0.1243 H   0  0  0  0  0  0  0  0  0  0  0  0
  1  2  1  0
  2  3  1  0
  3  4  1  0
  4  5  1  0
  5  6  1  0
  6  7  1  0
  7  8  1  0
  8  9  1  0
  9 10  1  0
 10 11  1  0
 11 12  1  0
 12 13  1  0
 13 14  1  0
 14 15  1  0
 14 16  1  0
 14 17  1  0
 17 18  1  0
 18 19  1  1
 19 20  2  0
 19 21  1  0
 21 22  1  0
 22 23  1  0
 23 24  1  0
 24 25  2  0
 25 26  1  0
 26 27  2  0
 27 28  1  0
 28 29  1  0
 28 30  1  0
 28 31  1  0
 27 32  1  0
 32 33  2  0
 33 34  1  0
 18 35  1  0
  8  3  1  0
 35 10  1  0
 18 12  1  0
 34 21  1  0
 33 24  1  0
  1 36  1  0
  1 37  1  0
  1 38  1  0
  3 39  1  0
  4 40  1  0
  4 41  1  0
  6 42  1  0
  6 43  1  0
  7 44  1  0
  7 45  1  0
  8 46  1  0
  9 47  1  0
 10 48  1  6
 11 49  1  0
 11 50  1  0
 12 51  1  1
 13 52  1  0
 13 53  1  0
 17 54  1  0
 17 55  1  0
 22 56  1  0
 22 57  1  0
 23 58  1  0
 23 59  1  0
 26 60  1  0
 32 61  1  0
 34 62  1  0
 34 63  1  0
 35 64  1  0
 35 65  1  0
M  END
$$$$
