@<TRIPOS>MOLECULE
*****
 65 69 0 0 0
SMALL
GASTEIGER

@<TRIPOS>ATOM
      1 C          -6.1649    2.3751   -0.4568 C.3     1  UNL1        0.0370
      2 O          -4.7904    2.1655   -0.4914 O.3     1  UNL1       -0.3760
      3 C          -4.3888    1.5964    0.6844 C.3     1  UNL1        0.0969
      4 C          -3.2903    2.3597    1.3983 C.3     1  UNL1        0.0753
      5 O          -2.2903    1.5207    1.8587 O.3     1  UNL1       -0.3771
      6 C          -2.7385    0.4832    2.6395 C.3     1  UNL1        0.0493
      7 C          -3.7358   -0.3580    1.9013 C.3     1  UNL1       -0.0115
      8 C          -3.7906    0.1788    0.4559 C.3     1  UNL1        0.0383
      9 N          -2.4350    0.3048    0.0055 N.3     1  UNL1       -0.3079
     10 C          -1.8179   -0.8489   -0.5470 C.3     1  UNL1        0.0092
     11 C          -1.7666   -2.0736    0.2781 C.3     1  UNL1       -0.0335
     12 C          -0.6887   -2.8767   -0.4834 C.3     1  UNL1       -0.0200
     13 C          -1.1775   -3.3827   -1.7954 C.3     1  UNL1        0.0146
     14 C          -0.2495   -2.8780   -2.8605 C.3     1  UNL1        0.2502
     15 F          -0.9545   -2.0758   -3.7339 F       1  UNL1       -0.2056
     16 F           0.3481   -3.9116   -3.5628 F       1  UNL1       -0.2056
     17 C           0.8625   -2.1203   -2.1702 C.3     1  UNL1        0.0250
     18 C           0.3580   -1.8175   -0.7757 C.3     1  UNL1        0.0570
     19 C           1.4368   -1.9642    0.2181 C.2     1  UNL1        0.2225
     20 O           1.2543   -2.8302    1.1526 O.2     1  UNL1       -0.2750
     21 N           2.6310   -1.2106    0.1815 N.am    1  UNL1       -0.2963
     22 C           3.5985   -1.4844    1.2614 C.3     1  UNL1        0.0204
     23 C           5.0060   -1.2319    0.6947 C.3     1  UNL1        0.0058
     24 C           4.9743    0.2313    0.3303 C.ar    1  UNL1        0.0474
     25 N           5.9206    1.0920    0.7139 N.ar    1  UNL1       -0.2590
     26 C           5.8672    2.4067    0.3821 C.ar    1  UNL1        0.0395
     27 C           4.8306    2.9212   -0.3696 C.ar    1  UNL1        0.0732
     28 C           4.7949    4.3769   -0.7224 C.3     1  UNL1        0.4188
     29 F           3.5088    4.7987   -0.9975 F       1  UNL1       -0.1658
     30 F           5.2389    5.1505    0.3490 F       1  UNL1       -0.1658
     31 F           5.6180    4.6498   -1.7840 F       1  UNL1       -0.1658
     32 C           3.8423    2.0495   -0.7766 C.ar    1  UNL1       -0.0423
     33 C           3.9250    0.6968   -0.4184 C.ar    1  UNL1       -0.0083
     34 C           2.8768   -0.2537   -0.8578 C.3     1  UNL1        0.0414
     35 C          -0.3386   -0.4916   -0.7534 C.3     1  UNL1       -0.0231
     36 H          -6.5510    2.8345   -1.3826 H       1  UNL1        0.0524
     37 H          -6.4730    3.0580    0.3744 H       1  UNL1        0.0524
     38 H          -6.6962    1.4080   -0.2336 H       1  UNL1        0.0524
     39 H          -5.2566    1.4526    1.3520 H       1  UNL1        0.0634
     40 H          -3.6979    3.0358    2.1738 H       1  UNL1        0.0586
     41 H          -2.8206    3.0212    0.6288 H       1  UNL1        0.0586
     42 H          -1.8493   -0.1641    2.8542 H       1  UNL1        0.0560
     43 H          -3.1102    0.8174    3.6332 H       1  UNL1        0.0560
     44 H          -3.6107   -1.4275    1.9677 H       1  UNL1        0.0303
     45 H          -4.7406   -0.0925    2.3630 H       1  UNL1        0.0303
     46 H          -4.4289   -0.4108   -0.1917 H       1  UNL1        0.0487
     47 H          -2.4143    1.0551   -0.7207 H       1  UNL1        0.1225
     48 H          -2.2211   -1.0845   -1.5669 H       1  UNL1        0.0461
     49 H          -1.3642   -1.8943    1.2808 H       1  UNL1        0.0283
     50 H          -2.7053   -2.6771    0.2494 H       1  UNL1        0.0283
     51 H          -0.2863   -3.6479    0.1981 H       1  UNL1        0.0313
     52 H          -2.2360   -3.1331   -2.0103 H       1  UNL1        0.0325
     53 H          -1.0973   -4.4997   -1.7872 H       1  UNL1        0.0325
     54 H           1.0592   -1.1839   -2.7183 H       1  UNL1        0.0333
     55 H           1.7848   -2.7208   -2.1060 H       1  UNL1        0.0333
     56 H           3.4510   -0.7182    2.0478 H       1  UNL1        0.0468
     57 H           3.4906   -2.4908    1.6648 H       1  UNL1        0.0468
     58 H           5.1531   -1.8699   -0.1851 H       1  UNL1        0.0344
     59 H           5.7292   -1.4319    1.5042 H       1  UNL1        0.0344
     60 H           6.6479    3.1019    0.7022 H       1  UNL1        0.0835
     61 H           2.9991    2.4170   -1.3766 H       1  UNL1        0.0627
     62 H           3.2230   -0.8485   -1.7427 H       1  UNL1        0.0514
     63 H           1.9931    0.3552   -1.1433 H       1  UNL1        0.0514
     64 H          -0.2430    0.0779   -1.7140 H       1  UNL1        0.0290
     65 H          -0.0027    0.1126    0.1243 H       1  UNL1        0.0290
@<TRIPOS>BOND
     1     1     2    1
     2     2     3    1
     3     3     4    1
     4     4     5    1
     5     5     6    1
     6     6     7    1
     7     7     8    1
     8     8     9    1
     9     9    10    1
    10    10    11    1
    11    11    12    1
    12    12    13    1
    13    13    14    1
    14    14    15    1
    15    14    16    1
    16    14    17    1
    17    17    18    1
    18    18    19    1
    19    19    20    2
    20    19    21   am
    21    21    22    1
    22    22    23    1
    23    23    24    1
    24    24    25   ar
    25    25    26   ar
    26    26    27   ar
    27    27    28    1
    28    28    29    1
    29    28    30    1
    30    28    31    1
    31    27    32   ar
    32    32    33   ar
    33    33    34    1
    34    18    35    1
    35     8     3    1
    36    35    10    1
    37    18    12    1
    38    34    21    1
    39    33    24   ar
    40     1    36    1
    41     1    37    1
    42     1    38    1
    43     3    39    1
    44     4    40    1
    45     4    41    1
    46     6    42    1
    47     6    43    1
    48     7    44    1
    49     7    45    1
    50     8    46    1
    51     9    47    1
    52    10    48    1
    53    11    49    1
    54    11    50    1
    55    12    51    1
    56    13    52    1
    57    13    53    1
    58    17    54    1
    59    17    55    1
    60    22    56    1
    61    22    57    1
    62    23    58    1
    63    23    59    1
    64    26    60    1
    65    32    61    1
    66    34    62    1
    67    34    63    1
    68    35    64    1
    69    35    65    1
