@<TRIPOS>MOLECULE
*****
 67 72 0 0 0
SMALL
GASTEIGER

@<TRIPOS>ATOM
      1 C          -8.4530   -2.3913    0.8342 C.3     1  UNL1        0.0032
      2 N          -7.1547   -2.1250    0.2370 N.am    1  UNL1       -0.3024
      3 C          -6.9420   -2.5149   -1.1269 C.3     1  UNL1        0.0032
      4 C          -6.1656   -1.4915    1.0163 C.2     1  UNL1        0.2627
      5 O          -6.4130   -1.1352    2.2046 O.2     1  UNL1       -0.2684
      6 C          -4.8260   -1.2252    0.5125 C.ar    1  UNL1        0.1070
      7 C          -3.9830   -2.3018    0.1999 C.ar    1  UNL1       -0.0209
      8 C          -2.8082   -1.7265   -0.2265 C.ar    1  UNL1        0.0378
      9 C          -1.6289   -2.3092   -0.6612 C.ar    1  UNL1        0.0419
     10 N          -0.6172   -1.5009   -1.0318 N.ar    1  UNL1       -0.2219
     11 C          -0.7271   -0.1594   -0.9884 C.ar    1  UNL1        0.2224
     12 N           0.2825    0.7106   -1.4248 N.pl3   1  UNL1       -0.2685
     13 C           1.5915    0.8522   -0.9167 C.ar    1  UNL1        0.1250
     14 C           2.4535    1.8181   -1.4689 C.ar    1  UNL1       -0.0208
     15 C           3.7278    1.9904   -1.0156 C.ar    1  UNL1       -0.0449
     16 C           4.2485    1.2020    0.0385 C.ar    1  UNL1        0.0551
     17 C           5.5901    1.4643    0.4871 C.2     1  UNL1        0.2484
     18 O           5.8109    2.6300    1.0193 O.2     1  UNL1       -0.2699
     19 N           6.7120    0.6412    0.4334 N.am    1  UNL1       -0.2916
     20 C           8.0506    0.9786    0.8923 C.3     1  UNL1        0.0206
     21 C           8.9667   -0.0237    0.2355 C.3     1  UNL1        0.0026
     22 C           8.8945   -1.2743    1.0791 C.3     1  UNL1       -0.0446
     23 C           7.4229   -1.6427    0.9321 C.3     1  UNL1       -0.0315
     24 C           6.8276   -0.6896   -0.0818 C.3     1  UNL1        0.0525
     25 C           8.0948   -0.4769   -0.9489 C.3     1  UNL1        0.0780
     26 O           8.5050   -1.6952   -1.4427 O.3     1  UNL1       -0.3896
     27 C           3.3938    0.2873    0.5415 C.ar    1  UNL1        0.0418
     28 N           2.1193    0.1346    0.0692 N.ar    1  UNL1       -0.2394
     29 N          -1.8838    0.4155   -0.5596 N.ar    1  UNL1       -0.1962
     30 C          -2.9055   -0.3541   -0.1852 C.ar    1  UNL1        0.1466
     31 N          -4.1693   -0.0797    0.2776 N.ar    1  UNL1       -0.3180
     32 C          -4.7082    1.2317    0.4950 C.3     1  UNL1        0.0366
     33 C          -6.1028    1.4354   -0.0560 C.3     1  UNL1       -0.0320
     34 C          -6.2277    2.9382   -0.2449 C.3     1  UNL1       -0.0511
     35 C          -4.8309    3.4991   -0.2908 C.3     1  UNL1       -0.0511
     36 C          -3.8746    2.3249   -0.1707 C.3     1  UNL1       -0.0320
     37 H          -8.2536   -2.9924    1.7480 H       1  UNL1        0.0428
     38 H          -9.0783   -3.0250    0.1575 H       1  UNL1        0.0428
     39 H          -8.9712   -1.4818    1.0848 H       1  UNL1        0.0428
     40 H          -6.4950   -3.5174   -1.2311 H       1  UNL1        0.0428
     41 H          -6.3490   -1.7290   -1.6309 H       1  UNL1        0.0428
     42 H          -7.9378   -2.5451   -1.6710 H       1  UNL1        0.0428
     43 H          -4.2202   -3.3578    0.2795 H       1  UNL1        0.0647
     44 H          -1.5891   -3.3970   -0.6811 H       1  UNL1        0.0838
     45 H           0.0133    1.3380   -2.2501 H       1  UNL1        0.1564
     46 H           2.0595    2.4334   -2.2792 H       1  UNL1        0.0652
     47 H           4.3986    2.7386   -1.4355 H       1  UNL1        0.0627
     48 H           8.0887    0.8093    1.9818 H       1  UNL1        0.0468
     49 H           8.3417    2.0169    0.6391 H       1  UNL1        0.0468
     50 H           9.9372    0.3137   -0.0492 H       1  UNL1        0.0341
     51 H           9.5702   -2.0398    0.6082 H       1  UNL1        0.0270
     52 H           9.1901   -1.0812    2.1086 H       1  UNL1        0.0270
     53 H           6.9529   -1.5336    1.9354 H       1  UNL1        0.0284
     54 H           7.4031   -2.6695    0.5329 H       1  UNL1        0.0284
     55 H           6.0048   -1.0758   -0.6385 H       1  UNL1        0.0526
     56 H           7.9506    0.3060   -1.6917 H       1  UNL1        0.0615
     57 H           8.4791   -1.6360   -2.4416 H       1  UNL1        0.2099
     58 H           3.7432   -0.3554    1.3651 H       1  UNL1        0.0838
     59 H          -4.7640    1.4939    1.5830 H       1  UNL1        0.0528
     60 H          -6.8789    1.1303    0.6446 H       1  UNL1        0.0285
     61 H          -6.1852    0.9426   -1.0477 H       1  UNL1        0.0285
     62 H          -6.8391    3.3661    0.5679 H       1  UNL1        0.0266
     63 H          -6.8024    3.1431   -1.1767 H       1  UNL1        0.0266
     64 H          -4.7029    4.0577   -1.2335 H       1  UNL1        0.0266
     65 H          -4.7265    4.2115    0.5564 H       1  UNL1        0.0266
     66 H          -3.5669    2.0736   -1.1835 H       1  UNL1        0.0285
     67 H          -3.0433    2.6244    0.4894 H       1  UNL1        0.0285
@<TRIPOS>BOND
     1     1     2    1
     2     2     3    1
     3     2     4   am
     4     4     5    2
     5     4     6    1
     6     6     7   ar
     7     7     8   ar
     8     8     9   ar
     9     9    10   ar
    10    10    11   ar
    11    11    12    1
    12    12    13    1
    13    13    14   ar
    14    14    15   ar
    15    15    16   ar
    16    16    17    1
    17    17    18    2
    18    17    19   am
    19    19    20    1
    20    20    21    1
    21    21    22    1
    22    22    23    1
    23    23    24    1
    24    24    25    1
    25    25    26    1
    26    16    27   ar
    27    27    28   ar
    28    11    29   ar
    29    29    30   ar
    30    30    31   ar
    31    31    32    1
    32    32    33    1
    33    33    34    1
    34    34    35    1
    35    35    36    1
    36    31     6   ar
    37    36    32    1
    38    30     8   ar
    39    28    13   ar
    40    24    19    1
    41    25    21    1
    42     1    37    1
    43     1    38    1
    44     1    39    1
    45     3    40    1
    46     3    41    1
    47     3    42    1
    48     7    43    1
    49     9    44    1
    50    12    45    1
    51    14    46    1
    52    15    47    1
    53    20    48    1
    54    20    49    1
    55    21    50    1
    56    22    51    1
    57    22    52    1
    58    23    53    1
    59    23    54    1
    60    24    55    1
    61    25    56    1
    62    26    57    1
    63    27    58    1
    64    32    59    1
    65    33    60    1
    66    33    61    1
    67    34    62    1
    68    34    63    1
    69    35    64    1
    70    35    65    1
    71    36    66    1
    72    36    67    1
