
     RDKit          3D

 67 72  0  0  0  0  0  0  0  0999 V2000
   -8.4530   -2.3913    0.8342 C   0  0  0  0  0  0  0  0  0  0  0  0
   -7.1547   -2.1250    0.2370 N   0  0  0  0  0  0  0  0  0  0  0  0
   -6.9420   -2.5149   -1.1269 C   0  0  0  0  0  0  0  0  0  0  0  0
   -6.1656   -1.4915    1.0163 C   0  0  0  0  0  0  0  0  0  0  0  0
   -6.4130   -1.1352    2.2046 O   0  0  0  0  0  0  0  0  0  0  0  0
   -4.8260   -1.2252    0.5125 C   0  0  0  0  0  0  0  0  0  0  0  0
   -3.9830   -2.3018    0.1999 C   0  0  0  0  0  0  0  0  0  0  0  0
   -2.8082   -1.7265   -0.2265 C   0  0  0  0  0  0  0  0  0  0  0  0
   -1.6289   -2.3092   -0.6612 C   0  0  0  0  0  0  0  0  0  0  0  0
   -0.6172   -1.5009   -1.0318 N   0  0  0  0  0  0  0  0  0  0  0  0
   -0.7271   -0.1594   -0.9884 C   0  0  0  0  0  0  0  0  0  0  0  0
    0.2825    0.7106   -1.4248 N   0  0  0  0  0  0  0  0  0  0  0  0
    1.5915    0.8522   -0.9167 C   0  0  0  0  0  0  0  0  0  0  0  0
    2.4535    1.8181   -1.4689 C   0  0  0  0  0  0  0  0  0  0  0  0
    3.7278    1.9904   -1.0156 C   0  0  0  0  0  0  0  0  0  0  0  0
    4.2485    1.2020    0.0385 C   0  0  0  0  0  0  0  0  0  0  0  0
    5.5901    1.4643    0.4871 C   0  0  0  0  0  0  0  0  0  0  0  0
    5.8109    2.6300    1.0193 O   0  0  0  0  0  0  0  0  0  0  0  0
    6.7120    0.6412    0.4334 N   0  0  0  0  0  0  0  0  0  0  0  0
    8.0506    0.9786    0.8923 C   0  0  0  0  0  0  0  0  0  0  0  0
    8.9667   -0.0237    0.2355 C   0  0  0  0  0  0  0  0  0  0  0  0
    8.8945   -1.2743    1.0791 C   0  0  0  0  0  0  0  0  0  0  0  0
    7.4229   -1.6427    0.9321 C   0  0  0  0  0  0  0  0  0  0  0  0
    6.8276   -0.6896   -0.0818 C   0  0  0  0  0  0  0  0  0  0  0  0
    8.0948   -0.4769   -0.9489 C   0  0  0  0  0  0  0  0  0  0  0  0
    8.5050   -1.6952   -1.4427 O   0  0  0  0  0  0  0  0  0  0  0  0
    3.3938    0.2873    0.5415 C   0  0  0  0  0  0  0  0  0  0  0  0
    2.1193    0.1346    0.0692 N   0  0  0  0  0  0  0  0  0  0  0  0
   -1.8838    0.4155   -0.5596 N   0  0  0  0  0  0  0  0  0  0  0  0
   -2.9055   -0.3541   -0.1852 C   0  0  0  0  0  0  0  0  0  0  0  0
   -4.1693   -0.0797    0.2776 N   0  0  0  0  0  0  0  0  0  0  0  0
   -4.7082    1.2317    0.4950 C   0  0  0  0  0  0  0  0  0  0  0  0
   -6.1028    1.4354   -0.0560 C   0  0  0  0  0  0  0  0  0  0  0  0
   -6.2277    2.9382   -0.2449 C   0  0  0  0  0  0  0  0  0  0  0  0
   -4.8309    3.4991   -0.2908 C   0  0  0  0  0  0  0  0  0  0  0  0
   -3.8746    2.3249   -0.1707 C   0  0  0  0  0  0  0  0  0  0  0  0
   -8.2536   -2.9924    1.7480 H   0  0  0  0  0  0  0  0  0  0  0  0
   -9.0783   -3.0250    0.1575 H   0  0  0  0  0  0  0  0  0  0  0  0
   -8.9712   -1.4818    1.0848 H   0  0  0  0  0  0  0  0  0  0  0  0
   -6.4950   -3.5174   -1.2311 H   0  0  0  0  0  0  0  0  0  0  0  0
   -6.3490   -1.7290   -1.6309 H   0  0  0  0  0  0  0  0  0  0  0  0
   -7.9378   -2.5451   -1.6710 H   0  0  0  0  0  0  0  0  0  0  0  0
   -4.2202   -3.3578    0.2795 H   0  0  0  0  0  0  0  0  0  0  0  0
   -1.5891   -3.3970   -0.6811 H   0  0  0  0  0  0  0  0  0  0  0  0
    0.0133    1.3380   -2.2501 H   0  0  0  0  0  0  0  0  0  0  0  0
    2.0595    2.4334   -2.2792 H   0  0  0  0  0  0  0  0  0  0  0  0
    4.3986    2.7386   -1.4355 H   0  0  0  0  0  0  0  0  0  0  0  0
    8.0887    0.8093    1.9818 H   0  0  0  0  0  0  0  0  0  0  0  0
    8.3417    2.0169    0.6391 H   0  0  0  0  0  0  0  0  0  0  0  0
    9.9372    0.3137   -0.0492 H   0  0  0  0  0  0  0  0  0  0  0  0
    9.5702   -2.0398    0.6082 H   0  0  0  0  0  0  0  0  0  0  0  0
    9.1901   -1.0812    2.1086 H   0  0  0  0  0  0  0  0  0  0  0  0
    6.9529   -1.5336    1.9354 H   0  0  0  0  0  0  0  0  0  0  0  0
    7.4031   -2.6695    0.5329 H   0  0  0  0  0  0  0  0  0  0  0  0
    6.0048   -1.0758   -0.6385 H   0  0  0  0  0  0  0  0  0  0  0  0
    7.9506    0.3060   -1.6917 H   0  0  0  0  0  0  0  0  0  0  0  0
    8.4791   -1.6360   -2.4416 H   0  0  0  0  0  0  0  0  0  0  0  0
    3.7432   -0.3554    1.3651 H   0  0  0  0  0  0  0  0  0  0  0  0
   -4.7640    1.4939    1.5830 H   0  0  0  0  0  0  0  0  0  0  0  0
   -6.8789    1.1303    0.6446 H   0  0  0  0  0  0  0  0  0  0  0  0
   -6.1852    0.9426   -1.0477 H   0  0  0  0  0  0  0  0  0  0  0  0
   -6.8391    3.3661    0.5679 H   0  0  0  0  0  0  0  0  0  0  0  0
   -6.8024    3.1431   -1.1767 H   0  0  0  0  0  0  0  0  0  0  0  0
   -4.7029    4.0577   -1.2335 H   0  0  0  0  0  0  0  0  0  0  0  0
   -4.7265    4.2115    0.5564 H   0  0  0  0  0  0  0  0  0  0  0  0
   -3.5669    2.0736   -1.1835 H   0  0  0  0  0  0  0  0  0  0  0  0
   -3.0433    2.6244    0.4894 H   0  0  0  0  0  0  0  0  0  0  0  0
  1  2  1  0
  2  3  1  0
  2  4  1  0
  4  5  2  0
  4  6  1  0
  6  7  2  0
  7  8  1  0
  8  9  2  0
  9 10  1  0
 10 11  2  0
 11 12  1  0
 12 13  1  0
 13 14  2  0
 14 15  1  0
 15 16  2  0
 16 17  1  0
 17 18  2  0
 17 19  1  0
 19 20  1  0
 20 21  1  0
 21 22  1  0
 22 23  1  0
 23 24  1  0
 24 25  1  0
 25 26  1  0
 16 27  1  0
 27 28  2  0
 11 29  1  0
 29 30  2  0
 30 31  1  0
 31 32  1  0
 32 33  1  0
 33 34  1  0
 34 35  1  0
 35 36  1  0
 31  6  1  0
 36 32  1  0
 30  8  1  0
 28 13  1  0
 24 19  1  0
 25 21  1  0
  1 37  1  0
  1 38  1  0
  1 39  1  0
  3 40  1  0
  3 41  1  0
  3 42  1  0
  7 43  1  0
  9 44  1  0
 12 45  1  0
 14 46  1  0
 15 47  1  0
 20 48  1  0
 20 49  1  0
 21 50  1  0
 22 51  1  0
 22 52  1  0
 23 53  1  0
 23 54  1  0
 24 55  1  0
 25 56  1  0
 26 57  1  0
 27 58  1  0
 32 59  1  0
 33 60  1  0
 33 61  1  0
 34 62  1  0
 34 63  1  0
 35 64  1  0
 35 65  1  0
 36 66  1  0
 36 67  1  0
M  END
$$$$
