
     RDKit          3D

 39 42  0  0  0  0  0  0  0  0999 V2000
   -5.0299    2.0649   -0.3941 O   0  0  0  0  0  0  0  0  0  0  0  0
   -3.8176    1.7805   -0.5668 C   0  0  0  0  0  0  0  0  0  0  0  0
   -2.7121    1.7264    0.4115 C   0  0  0  0  0  0  0  0  0  0  0  0
   -1.6946    0.7359   -0.1708 C   0  0  1  0  0  0  0  0  0  0  0  0
   -1.8804    1.0010   -1.6249 C   0  0  0  0  0  0  0  0  0  0  0  0
   -1.0272    0.8794   -2.5365 O   0  0  0  0  0  0  0  0  0  0  0  0
   -3.2187    1.4274   -1.8285 N   0  0  0  0  0  0  0  0  0  0  0  0
   -0.3731    1.1968    0.3090 C   0  0  0  0  0  0  0  0  0  0  0  0
   -0.1440    2.4358    0.1501 O   0  0  0  0  0  0  0  0  0  0  0  0
    0.6206    0.4029    0.9124 N   0  0  0  0  0  0  0  0  0  0  0  0
    1.9572    0.8578    1.2573 C   0  0  0  0  0  0  0  0  0  0  0  0
    2.9835    0.6648    0.2616 C   0  0  0  0  0  0  0  0  0  0  0  0
    3.8535   -0.4242    0.4153 C   0  0  0  0  0  0  0  0  0  0  0  0
    4.8523   -0.7056   -0.4753 C   0  0  0  0  0  0  0  0  0  0  0  0
    5.0503    0.0809   -1.5792 C   0  0  0  0  0  0  0  0  0  0  0  0
    6.4429   -0.3133   -2.8194 Br  0  0  0  0  0  0  0  0  0  0  0  0
    4.2167    1.1535   -1.7578 C   0  0  0  0  0  0  0  0  0  0  0  0
    3.1920    1.4414   -0.8429 C   0  0  0  0  0  0  0  0  0  0  0  0
    2.4668    2.5327   -1.1404 F   0  0  0  0  0  0  0  0  0  0  0  0
    0.2557   -0.9744    1.1700 C   0  0  0  0  0  0  0  0  0  0  0  0
    1.1227   -1.7013    1.7144 O   0  0  0  0  0  0  0  0  0  0  0  0
   -1.0616   -1.4512    0.8004 C   0  0  0  0  0  0  0  0  0  0  0  0
   -1.3454   -2.7779    1.1208 C   0  0  0  0  0  0  0  0  0  0  0  0
   -2.5713   -3.3021    0.8398 C   0  0  0  0  0  0  0  0  0  0  0  0
   -3.5144   -2.5252    0.2464 C   0  0  0  0  0  0  0  0  0  0  0  0
   -4.7397   -3.0686   -0.0277 F   0  0  0  0  0  0  0  0  0  0  0  0
   -3.2301   -1.1919   -0.0766 C   0  0  0  0  0  0  0  0  0  0  0  0
   -1.9983   -0.6434    0.1982 C   0  0  0  0  0  0  0  0  0  0  0  0
   -3.0063    1.4618    1.4231 H   0  0  0  0  0  0  0  0  0  0  0  0
   -2.2062    2.7254    0.3456 H   0  0  0  0  0  0  0  0  0  0  0  0
   -3.7000    1.4780   -2.7584 H   0  0  0  0  0  0  0  0  0  0  0  0
    1.8450    1.9646    1.4486 H   0  0  0  0  0  0  0  0  0  0  0  0
    2.2481    0.3496    2.2142 H   0  0  0  0  0  0  0  0  0  0  0  0
    3.7523   -1.0915    1.2757 H   0  0  0  0  0  0  0  0  0  0  0  0
    5.4914   -1.5531   -0.3109 H   0  0  0  0  0  0  0  0  0  0  0  0
    4.3840    1.7661   -2.6338 H   0  0  0  0  0  0  0  0  0  0  0  0
   -0.6055   -3.3996    1.5902 H   0  0  0  0  0  0  0  0  0  0  0  0
   -2.8240   -4.3413    1.0797 H   0  0  0  0  0  0  0  0  0  0  0  0
   -4.0347   -0.6629   -0.5407 H   0  0  0  0  0  0  0  0  0  0  0  0
  1  2  2  0
  2  3  1  0
  4  3  1  1
  4  5  1  0
  5  6  2  0
  5  7  1  0
  4  8  1  0
  8  9  2  0
  8 10  1  0
 10 11  1  0
 11 12  1  0
 12 13  2  0
 13 14  1  0
 14 15  2  0
 15 16  1  0
 15 17  1  0
 17 18  2  0
 18 19  1  0
 10 20  1  0
 20 21  2  0
 20 22  1  0
 22 23  2  0
 23 24  1  0
 24 25  2  0
 25 26  1  0
 25 27  1  0
 27 28  2  0
  7  2  1  0
 18 12  1  0
 28 22  1  0
 28  4  1  0
  3 29  1  0
  3 30  1  0
  7 31  1  0
 11 32  1  0
 11 33  1  0
 13 34  1  0
 14 35  1  0
 17 36  1  0
 23 37  1  0
 24 38  1  0
 27 39  1  0
M  END
$$$$
