@<TRIPOS>MOLECULE
*****
 39 42 0 0 0
SMALL
GASTEIGER

@<TRIPOS>ATOM
      1 O          -5.0299    2.0649   -0.3941 O.2     1  UNL1       -0.2753
      2 C          -3.8176    1.7805   -0.5668 C.2     1  UNL1        0.2210
      3 C          -2.7121    1.7264    0.4115 C.3     1  UNL1        0.0508
      4 C          -1.6946    0.7359   -0.1708 C.3     1  UNL1        0.1572
      5 C          -1.8804    1.0010   -1.6249 C.2     1  UNL1        0.2392
      6 O          -1.0272    0.8794   -2.5365 O.2     1  UNL1       -0.2739
      7 N          -3.2187    1.4274   -1.8285 N.am    1  UNL1       -0.2552
      8 C          -0.3731    1.1968    0.3090 C.2     1  UNL1        0.2423
      9 O          -0.1440    2.4358    0.1501 O.2     1  UNL1       -0.2736
     10 N           0.6206    0.4029    0.9124 N.am    1  UNL1       -0.2325
     11 C           1.9572    0.8578    1.2573 C.3     1  UNL1        0.0504
     12 C           2.9835    0.6648    0.2616 C.ar    1  UNL1        0.0056
     13 C           3.8535   -0.4242    0.4153 C.ar    1  UNL1       -0.0533
     14 C           4.8523   -0.7056   -0.4753 C.ar    1  UNL1       -0.0473
     15 C           5.0503    0.0809   -1.5792 C.ar    1  UNL1        0.0206
     16 BR          6.4429   -0.3133   -2.8194 Br      1  UNL1       -0.0502
     17 C           4.2167    1.1535   -1.7578 C.ar    1  UNL1       -0.0122
     18 C           3.1920    1.4414   -0.8429 C.ar    1  UNL1        0.1291
     19 F           2.4668    2.5327   -1.1404 F       1  UNL1       -0.2051
     20 C           0.2557   -0.9744    1.1700 C.2     1  UNL1        0.2535
     21 O           1.1227   -1.7013    1.7144 O.2     1  UNL1       -0.2695
     22 C          -1.0616   -1.4512    0.8004 C.ar    1  UNL1        0.0421
     23 C          -1.3454   -2.7779    1.1208 C.ar    1  UNL1       -0.0466
     24 C          -2.5713   -3.3021    0.8398 C.ar    1  UNL1       -0.0257
     25 C          -3.5144   -2.5252    0.2464 C.ar    1  UNL1        0.1237
     26 F          -4.7397   -3.0686   -0.0277 F       1  UNL1       -0.2055
     27 C          -3.2301   -1.1919   -0.0766 C.ar    1  UNL1       -0.0211
     28 C          -1.9983   -0.6434    0.1982 C.ar    1  UNL1       -0.0084
     29 H          -3.0063    1.4618    1.4231 H       1  UNL1        0.0377
     30 H          -2.2062    2.7254    0.3456 H       1  UNL1        0.0377
     31 H          -3.7000    1.4780   -2.7584 H       1  UNL1        0.1575
     32 H           1.8450    1.9646    1.4486 H       1  UNL1        0.0520
     33 H           2.2481    0.3496    2.2142 H       1  UNL1        0.0520
     34 H           3.7523   -1.0915    1.2757 H       1  UNL1        0.0622
     35 H           5.4914   -1.5531   -0.3109 H       1  UNL1        0.0629
     36 H           4.3840    1.7661   -2.6338 H       1  UNL1        0.0657
     37 H          -0.6055   -3.3996    1.5902 H       1  UNL1        0.0626
     38 H          -2.8240   -4.3413    1.0797 H       1  UNL1        0.0646
     39 H          -4.0347   -0.6629   -0.5407 H       1  UNL1        0.0649
@<TRIPOS>BOND
     1     1     2    2
     2     2     3    1
     3     4     3    1
     4     4     5    1
     5     5     6    2
     6     5     7   am
     7     4     8    1
     8     8     9    2
     9     8    10   am
    10    10    11    1
    11    11    12    1
    12    12    13   ar
    13    13    14   ar
    14    14    15   ar
    15    15    16    1
    16    15    17   ar
    17    17    18   ar
    18    18    19    1
    19    10    20   am
    20    20    21    2
    21    20    22    1
    22    22    23   ar
    23    23    24   ar
    24    24    25   ar
    25    25    26    1
    26    25    27   ar
    27    27    28   ar
    28     7     2   am
    29    18    12   ar
    30    28    22   ar
    31    28     4    1
    32     3    29    1
    33     3    30    1
    34     7    31    1
    35    11    32    1
    36    11    33    1
    37    13    34    1
    38    14    35    1
    39    17    36    1
    40    23    37    1
    41    24    38    1
    42    27    39    1
