@<TRIPOS>MOLECULE
*****
 49 52 0 0 0
SMALL
GASTEIGER

@<TRIPOS>ATOM
      1 O          -3.2279    1.0391    3.8716 O.2     1  UNL1       -0.2434
      2 C          -4.1115    1.2718    3.0061 C.2     1  UNL1        0.3553
      3 OXT        -5.1875    2.0537    3.3907 O.3     1  UNL1       -0.4761
      4 CA         -3.9891    0.7302    1.6570 C.ar    1  UNL1        0.1480
      5 C          -4.9780    1.0018    0.7228 C.ar    1  UNL1       -0.0292
      6 C          -4.8193    0.4727   -0.5332 C.ar    1  UNL1       -0.0575
      7 C          -3.6962   -0.2999   -0.8160 C.ar    1  UNL1       -0.0360
      8 C          -2.7557   -0.5458    0.1032 C.ar    1  UNL1        0.0682
      9 C          -1.5415   -1.2948   -0.1299 C.2     1  UNL1       -0.0181
     10 C          -0.5131   -1.0993   -0.9333 C.2     1  UNL1       -0.0315
     11 C          -0.2648   -0.0263   -1.8737 C.ar    1  UNL1        0.0215
     12 C          -1.0735    0.3718   -2.8906 C.ar    1  UNL1       -0.0325
     13 C          -0.7888    1.4457   -3.7213 C.ar    1  UNL1        0.0418
     14 CL         -1.9030    1.8857   -5.0133 Cl      1  UNL1       -0.0835
     15 C           0.3524    2.1600   -3.5383 C.ar    1  UNL1       -0.0399
     16 C           1.2000    1.8022   -2.5334 C.ar    1  UNL1       -0.0179
     17 C           0.9095    0.7355   -1.7132 C.ar    1  UNL1        0.1284
     18 O           1.7563    0.3499   -0.6835 O.3     1  UNL1       -0.4867
     19 C           2.9370    1.0782   -0.4755 C.3     1  UNL1        0.1173
     20 C           3.7503    0.5679    0.6335 C.ar    1  UNL1        0.0250
     21 C           3.7561    1.1958    1.8551 C.ar    1  UNL1       -0.0499
     22 C           4.4880    0.7632    2.9296 C.ar    1  UNL1       -0.0259
     23 C           5.2718   -0.3612    2.8086 C.ar    1  UNL1        0.1261
     24 F           6.0135   -0.8159    3.8613 F       1  UNL1       -0.2054
     25 C           5.2866   -1.0128    1.5960 C.ar    1  UNL1        0.0092
     26 C           4.5311   -0.5553    0.5074 C.ar    1  UNL1        0.1325
     27 F           4.5975   -1.2469   -0.6520 F       1  UNL1       -0.2050
     28 C           0.4838   -2.2398   -0.7458 C.3     1  UNL1       -0.0264
     29 C          -0.4562   -3.3531   -0.3327 C.3     1  UNL1       -0.0450
     30 C          -1.3164   -2.5735    0.6672 C.3     1  UNL1       -0.0251
     31 N          -2.9140   -0.0208    1.3510 N.ar    1  UNL1       -0.2404
     32 HXT        -5.1388    2.7206    4.1614 H       1  UNL1        0.2955
     33 H          -5.8515    1.6140    0.9726 H       1  UNL1        0.0641
     34 H          -5.5601    0.6562   -1.2910 H       1  UNL1        0.0619
     35 H          -3.6528   -0.7052   -1.8054 H       1  UNL1        0.0639
     36 H          -1.9656   -0.1539   -3.1103 H       1  UNL1        0.0639
     37 H           0.5413    2.9915   -4.2053 H       1  UNL1        0.0633
     38 H           2.1076    2.3639   -2.3818 H       1  UNL1        0.0655
     39 H           2.6191    2.1454   -0.2870 H       1  UNL1        0.0749
     40 H           3.4973    1.1157   -1.4453 H       1  UNL1        0.0749
     41 H           3.1461    2.1007    2.0041 H       1  UNL1        0.0623
     42 H           4.4565    1.2949    3.8703 H       1  UNL1        0.0646
     43 H           5.8947   -1.9059    1.4587 H       1  UNL1        0.0675
     44 H           1.1536   -2.0192    0.1004 H       1  UNL1        0.0314
     45 H           0.9896   -2.4332   -1.6975 H       1  UNL1        0.0314
     46 H           0.0639   -4.1871    0.1339 H       1  UNL1        0.0272
     47 H          -1.0699   -3.6329   -1.2191 H       1  UNL1        0.0272
     48 H          -0.7428   -2.3800    1.5731 H       1  UNL1        0.0314
     49 H          -2.2853   -3.0652    0.7927 H       1  UNL1        0.0314
@<TRIPOS>BOND
     1     1     2    2
     2     2     3    1
     3     2     4    1
     4     4     5   ar
     5     5     6   ar
     6     6     7   ar
     7     7     8   ar
     8     8     9    1
     9     9    10    2
    10    10    11    1
    11    11    12   ar
    12    12    13   ar
    13    13    14    1
    14    13    15   ar
    15    15    16   ar
    16    16    17   ar
    17    17    18    1
    18    18    19    1
    19    19    20    1
    20    20    21   ar
    21    21    22   ar
    22    22    23   ar
    23    23    24    1
    24    23    25   ar
    25    25    26   ar
    26    26    27    1
    27    10    28    1
    28    28    29    1
    29    29    30    1
    30     8    31   ar
    31    31     4   ar
    32    30     9    1
    33    17    11   ar
    34    26    20   ar
    35     3    32    1
    36     5    33    1
    37     6    34    1
    38     7    35    1
    39    12    36    1
    40    15    37    1
    41    16    38    1
    42    19    39    1
    43    19    40    1
    44    21    41    1
    45    22    42    1
    46    25    43    1
    47    28    44    1
    48    28    45    1
    49    29    46    1
    50    29    47    1
    51    30    48    1
    52    30    49    1
