
     RDKit          3D

 49 52  0  0  0  0  0  0  0  0999 V2000
   -3.2279    1.0391    3.8716 O   0  0  0  0  0  0  0  0  0  0  0  0
   -4.1115    1.2718    3.0061 C   0  0  0  0  0  0  0  0  0  0  0  0
   -5.1875    2.0537    3.3907 O   0  0  0  0  0  0  0  0  0  0  0  0
   -3.9891    0.7302    1.6570 C   0  0  0  0  0  0  0  0  0  0  0  0
   -4.9780    1.0018    0.7228 C   0  0  0  0  0  0  0  0  0  0  0  0
   -4.8193    0.4727   -0.5332 C   0  0  0  0  0  0  0  0  0  0  0  0
   -3.6962   -0.2999   -0.8160 C   0  0  0  0  0  0  0  0  0  0  0  0
   -2.7557   -0.5458    0.1032 C   0  0  0  0  0  0  0  0  0  0  0  0
   -1.5415   -1.2948   -0.1299 C   0  0  0  0  0  0  0  0  0  0  0  0
   -0.5131   -1.0993   -0.9333 C   0  0  0  0  0  0  0  0  0  0  0  0
   -0.2648   -0.0263   -1.8737 C   0  0  0  0  0  0  0  0  0  0  0  0
   -1.0735    0.3718   -2.8906 C   0  0  0  0  0  0  0  0  0  0  0  0
   -0.7888    1.4457   -3.7213 C   0  0  0  0  0  0  0  0  0  0  0  0
   -1.9030    1.8857   -5.0133 Cl  0  0  0  0  0  0  0  0  0  0  0  0
    0.3524    2.1600   -3.5383 C   0  0  0  0  0  0  0  0  0  0  0  0
    1.2000    1.8022   -2.5334 C   0  0  0  0  0  0  0  0  0  0  0  0
    0.9095    0.7355   -1.7132 C   0  0  0  0  0  0  0  0  0  0  0  0
    1.7563    0.3499   -0.6835 O   0  0  0  0  0  0  0  0  0  0  0  0
    2.9370    1.0782   -0.4755 C   0  0  0  0  0  0  0  0  0  0  0  0
    3.7503    0.5679    0.6335 C   0  0  0  0  0  0  0  0  0  0  0  0
    3.7561    1.1958    1.8551 C   0  0  0  0  0  0  0  0  0  0  0  0
    4.4880    0.7632    2.9296 C   0  0  0  0  0  0  0  0  0  0  0  0
    5.2718   -0.3612    2.8086 C   0  0  0  0  0  0  0  0  0  0  0  0
    6.0135   -0.8159    3.8613 F   0  0  0  0  0  0  0  0  0  0  0  0
    5.2866   -1.0128    1.5960 C   0  0  0  0  0  0  0  0  0  0  0  0
    4.5311   -0.5553    0.5074 C   0  0  0  0  0  0  0  0  0  0  0  0
    4.5975   -1.2469   -0.6520 F   0  0  0  0  0  0  0  0  0  0  0  0
    0.4838   -2.2398   -0.7458 C   0  0  0  0  0  0  0  0  0  0  0  0
   -0.4562   -3.3531   -0.3327 C   0  0  0  0  0  0  0  0  0  0  0  0
   -1.3164   -2.5735    0.6672 C   0  0  0  0  0  0  0  0  0  0  0  0
   -2.9140   -0.0208    1.3510 N   0  0  0  0  0  0  0  0  0  0  0  0
   -5.1388    2.7206    4.1614 H   0  0  0  0  0  0  0  0  0  0  0  0
   -5.8515    1.6140    0.9726 H   0  0  0  0  0  0  0  0  0  0  0  0
   -5.5601    0.6562   -1.2910 H   0  0  0  0  0  0  0  0  0  0  0  0
   -3.6528   -0.7052   -1.8054 H   0  0  0  0  0  0  0  0  0  0  0  0
   -1.9656   -0.1539   -3.1103 H   0  0  0  0  0  0  0  0  0  0  0  0
    0.5413    2.9915   -4.2053 H   0  0  0  0  0  0  0  0  0  0  0  0
    2.1076    2.3639   -2.3818 H   0  0  0  0  0  0  0  0  0  0  0  0
    2.6191    2.1454   -0.2870 H   0  0  0  0  0  0  0  0  0  0  0  0
    3.4973    1.1157   -1.4453 H   0  0  0  0  0  0  0  0  0  0  0  0
    3.1461    2.1007    2.0041 H   0  0  0  0  0  0  0  0  0  0  0  0
    4.4565    1.2949    3.8703 H   0  0  0  0  0  0  0  0  0  0  0  0
    5.8947   -1.9059    1.4587 H   0  0  0  0  0  0  0  0  0  0  0  0
    1.1536   -2.0192    0.1004 H   0  0  0  0  0  0  0  0  0  0  0  0
    0.9896   -2.4332   -1.6975 H   0  0  0  0  0  0  0  0  0  0  0  0
    0.0639   -4.1871    0.1339 H   0  0  0  0  0  0  0  0  0  0  0  0
   -1.0699   -3.6329   -1.2191 H   0  0  0  0  0  0  0  0  0  0  0  0
   -0.7428   -2.3800    1.5731 H   0  0  0  0  0  0  0  0  0  0  0  0
   -2.2853   -3.0652    0.7927 H   0  0  0  0  0  0  0  0  0  0  0  0
  1  2  2  0
  2  3  1  0
  2  4  1  0
  4  5  2  0
  5  6  1  0
  6  7  2  0
  7  8  1  0
  8  9  1  0
  9 10  2  0
 10 11  1  0
 11 12  2  0
 12 13  1  0
 13 14  1  0
 13 15  2  0
 15 16  1  0
 16 17  2  0
 17 18  1  0
 18 19  1  0
 19 20  1  0
 20 21  2  0
 21 22  1  0
 22 23  2  0
 23 24  1  0
 23 25  1  0
 25 26  2  0
 26 27  1  0
 10 28  1  0
 28 29  1  0
 29 30  1  0
  8 31  2  0
 31  4  1  0
 30  9  1  0
 17 11  1  0
 26 20  1  0
  3 32  1  0
  5 33  1  0
  6 34  1  0
  7 35  1  0
 12 36  1  0
 15 37  1  0
 16 38  1  0
 19 39  1  0
 19 40  1  0
 21 41  1  0
 22 42  1  0
 25 43  1  0
 28 44  1  0
 28 45  1  0
 29 46  1  0
 29 47  1  0
 30 48  1  0
 30 49  1  0
M  END
$$$$
