@<TRIPOS>MOLECULE
*****
 65 69 0 0 0
SMALL
GASTEIGER

@<TRIPOS>ATOM
      1 C          -7.0101    0.0927    0.2235 C.3     1  UNL1        0.0370
      2 O          -5.8931   -0.6400    0.6649 O.3     1  UNL1       -0.3760
      3 C          -5.0495    0.1452    1.4601 C.3     1  UNL1        0.0969
      4 C          -4.9405   -0.4670    2.8107 C.3     1  UNL1        0.0753
      5 O          -3.9598    0.0610    3.6100 O.3     1  UNL1       -0.3771
      6 C          -3.5424    1.2549    3.0761 C.3     1  UNL1        0.0493
      7 C          -2.7787    0.9238    1.7804 C.3     1  UNL1       -0.0115
      8 C          -3.7054    0.3209    0.7523 C.3     1  UNL1        0.0383
      9 N          -3.2597   -0.9286    0.2023 N.3     1  UNL1       -0.3079
     10 C          -2.1826   -0.7779   -0.6870 C.3     1  UNL1        0.0092
     11 C          -1.7797   -2.1299   -1.3198 C.3     1  UNL1       -0.0337
     12 C          -0.6516   -1.6257   -2.1865 C.3     1  UNL1       -0.0256
     13 C          -1.2194   -0.9515   -3.3829 C.3     1  UNL1       -0.0492
     14 C          -0.7027    0.4623   -3.4044 C.3     1  UNL1       -0.0518
     15 C           0.0714    0.6823   -2.1276 C.3     1  UNL1       -0.0387
     16 C           0.0628   -0.5850   -1.3500 C.3     1  UNL1        0.0514
     17 C           1.3808   -1.0975   -0.9551 C.2     1  UNL1        0.2223
     18 O           1.6464   -2.3092   -1.2910 O.2     1  UNL1       -0.2750
     19 N           2.3931   -0.4264   -0.2529 N.am    1  UNL1       -0.2963
     20 C           2.2702    0.9443    0.1814 C.3     1  UNL1        0.0204
     21 C           3.3458    1.7444   -0.5286 C.3     1  UNL1        0.0058
     22 C           4.6419    1.2072   -0.0645 C.ar    1  UNL1        0.0474
     23 N           5.6688    2.0619    0.0648 N.ar    1  UNL1       -0.2590
     24 C           6.8835    1.6627    0.4809 C.ar    1  UNL1        0.0395
     25 C           7.0376    0.3172    0.7755 C.ar    1  UNL1        0.0732
     26 C           8.3818   -0.1681    1.2441 C.3     1  UNL1        0.4188
     27 F           9.1828    0.9118    1.5320 F       1  UNL1       -0.1658
     28 F           8.1750   -0.8733    2.4316 F       1  UNL1       -0.1658
     29 F           8.9790   -0.9578    0.2829 F       1  UNL1       -0.1658
     30 C           5.9862   -0.5755    0.6465 C.ar    1  UNL1       -0.0423
     31 C           4.7548   -0.1512    0.2209 C.ar    1  UNL1       -0.0083
     32 C           3.6340   -1.0977    0.0818 C.3     1  UNL1        0.0414
     33 C          -0.8519   -0.3635   -0.1266 C.3     1  UNL1       -0.0233
     34 H          -6.6907    0.9578   -0.3727 H       1  UNL1        0.0524
     35 H          -7.4657    0.5145    1.1573 H       1  UNL1        0.0524
     36 H          -7.7409   -0.5640   -0.2470 H       1  UNL1        0.0524
     37 H          -5.5150    1.1418    1.5144 H       1  UNL1        0.0634
     38 H          -4.8002   -1.5731    2.7806 H       1  UNL1        0.0586
     39 H          -5.9159   -0.3035    3.3342 H       1  UNL1        0.0586
     40 H          -4.3431    1.9928    2.9049 H       1  UNL1        0.0560
     41 H          -2.7999    1.7825    3.7234 H       1  UNL1        0.0560
     42 H          -2.3667    1.9201    1.4703 H       1  UNL1        0.0303
     43 H          -1.9942    0.2265    2.1084 H       1  UNL1        0.0303
     44 H          -3.8672    1.0792   -0.0389 H       1  UNL1        0.0487
     45 H          -3.1413   -1.6571    0.9207 H       1  UNL1        0.1225
     46 H          -2.3939   -0.1310   -1.5655 H       1  UNL1        0.0461
     47 H          -1.3515   -2.7368   -0.5239 H       1  UNL1        0.0283
     48 H          -2.6076   -2.5676   -1.8735 H       1  UNL1        0.0283
     49 H           0.0318   -2.4453   -2.4952 H       1  UNL1        0.0311
     50 H          -2.3262   -0.9238   -3.4348 H       1  UNL1        0.0268
     51 H          -0.8953   -1.4938   -4.3141 H       1  UNL1        0.0268
     52 H          -1.5247    1.1945   -3.5289 H       1  UNL1        0.0266
     53 H          -0.0460    0.6018   -4.3123 H       1  UNL1        0.0266
     54 H           1.0544    1.0687   -2.4011 H       1  UNL1        0.0275
     55 H          -0.4515    1.5234   -1.5856 H       1  UNL1        0.0275
     56 H           2.5004    0.9786    1.2681 H       1  UNL1        0.0468
     57 H           1.3032    1.4078    0.0342 H       1  UNL1        0.0468
     58 H           3.2005    2.8137   -0.2820 H       1  UNL1        0.0344
     59 H           3.2690    1.5218   -1.6057 H       1  UNL1        0.0344
     60 H           7.6924    2.3830    0.5740 H       1  UNL1        0.0835
     61 H           6.1688   -1.6167    0.8923 H       1  UNL1        0.0627
     62 H           3.9259   -1.8216   -0.7279 H       1  UNL1        0.0514
     63 H           3.5503   -1.7098    1.0002 H       1  UNL1        0.0514
     64 H          -0.9373    0.7272    0.0708 H       1  UNL1        0.0290
     65 H          -0.4907   -0.9586    0.7096 H       1  UNL1        0.0290
@<TRIPOS>BOND
     1     1     2    1
     2     2     3    1
     3     3     4    1
     4     4     5    1
     5     5     6    1
     6     6     7    1
     7     7     8    1
     8     8     9    1
     9     9    10    1
    10    10    11    1
    11    11    12    1
    12    12    13    1
    13    13    14    1
    14    14    15    1
    15    15    16    1
    16    16    17    1
    17    17    18    2
    18    17    19   am
    19    19    20    1
    20    20    21    1
    21    21    22    1
    22    22    23   ar
    23    23    24   ar
    24    24    25   ar
    25    25    26    1
    26    26    27    1
    27    26    28    1
    28    26    29    1
    29    25    30   ar
    30    30    31   ar
    31    31    32    1
    32    16    33    1
    33     8     3    1
    34    33    10    1
    35    16    12    1
    36    32    19    1
    37    31    22   ar
    38     1    34    1
    39     1    35    1
    40     1    36    1
    41     3    37    1
    42     4    38    1
    43     4    39    1
    44     6    40    1
    45     6    41    1
    46     7    42    1
    47     7    43    1
    48     8    44    1
    49     9    45    1
    50    10    46    1
    51    11    47    1
    52    11    48    1
    53    12    49    1
    54    13    50    1
    55    13    51    1
    56    14    52    1
    57    14    53    1
    58    15    54    1
    59    15    55    1
    60    20    56    1
    61    20    57    1
    62    21    58    1
    63    21    59    1
    64    24    60    1
    65    30    61    1
    66    32    62    1
    67    32    63    1
    68    33    64    1
    69    33    65    1
