
     RDKit          3D

 65 69  0  0  0  0  0  0  0  0999 V2000
   -7.0101    0.0927    0.2235 C   0  0  0  0  0  0  0  0  0  0  0  0
   -5.8931   -0.6400    0.6649 O   0  0  0  0  0  0  0  0  0  0  0  0
   -5.0495    0.1452    1.4601 C   0  0  1  0  0  0  0  0  0  0  0  0
   -4.9405   -0.4670    2.8107 C   0  0  0  0  0  0  0  0  0  0  0  0
   -3.9598    0.0610    3.6100 O   0  0  0  0  0  0  0  0  0  0  0  0
   -3.5424    1.2549    3.0761 C   0  0  0  0  0  0  0  0  0  0  0  0
   -2.7787    0.9238    1.7804 C   0  0  0  0  0  0  0  0  0  0  0  0
   -3.7054    0.3209    0.7523 C   0  0  1  0  0  0  0  0  0  0  0  0
   -3.2597   -0.9286    0.2023 N   0  0  0  0  0  0  0  0  0  0  0  0
   -2.1826   -0.7779   -0.6870 C   0  0  2  0  0  0  0  0  0  0  0  0
   -1.7797   -2.1299   -1.3198 C   0  0  0  0  0  0  0  0  0  0  0  0
   -0.6516   -1.6257   -2.1865 C   0  0  1  0  0  0  0  0  0  0  0  0
   -1.2194   -0.9515   -3.3829 C   0  0  0  0  0  0  0  0  0  0  0  0
   -0.7027    0.4623   -3.4044 C   0  0  0  0  0  0  0  0  0  0  0  0
    0.0714    0.6823   -2.1276 C   0  0  0  0  0  0  0  0  0  0  0  0
    0.0628   -0.5850   -1.3500 C   0  0  2  0  0  0  0  0  0  0  0  0
    1.3808   -1.0975   -0.9551 C   0  0  0  0  0  0  0  0  0  0  0  0
    1.6464   -2.3092   -1.2910 O   0  0  0  0  0  0  0  0  0  0  0  0
    2.3931   -0.4264   -0.2529 N   0  0  0  0  0  0  0  0  0  0  0  0
    2.2702    0.9443    0.1814 C   0  0  0  0  0  0  0  0  0  0  0  0
    3.3458    1.7444   -0.5286 C   0  0  0  0  0  0  0  0  0  0  0  0
    4.6419    1.2072   -0.0645 C   0  0  0  0  0  0  0  0  0  0  0  0
    5.6688    2.0619    0.0648 N   0  0  0  0  0  0  0  0  0  0  0  0
    6.8835    1.6627    0.4809 C   0  0  0  0  0  0  0  0  0  0  0  0
    7.0376    0.3172    0.7755 C   0  0  0  0  0  0  0  0  0  0  0  0
    8.3818   -0.1681    1.2441 C   0  0  0  0  0  0  0  0  0  0  0  0
    9.1828    0.9118    1.5320 F   0  0  0  0  0  0  0  0  0  0  0  0
    8.1750   -0.8733    2.4316 F   0  0  0  0  0  0  0  0  0  0  0  0
    8.9790   -0.9578    0.2829 F   0  0  0  0  0  0  0  0  0  0  0  0
    5.9862   -0.5755    0.6465 C   0  0  0  0  0  0  0  0  0  0  0  0
    4.7548   -0.1512    0.2209 C   0  0  0  0  0  0  0  0  0  0  0  0
    3.6340   -1.0977    0.0818 C   0  0  0  0  0  0  0  0  0  0  0  0
   -0.8519   -0.3635   -0.1266 C   0  0  0  0  0  0  0  0  0  0  0  0
   -6.6907    0.9578   -0.3727 H   0  0  0  0  0  0  0  0  0  0  0  0
   -7.4657    0.5145    1.1573 H   0  0  0  0  0  0  0  0  0  0  0  0
   -7.7409   -0.5640   -0.2470 H   0  0  0  0  0  0  0  0  0  0  0  0
   -5.5150    1.1418    1.5144 H   0  0  0  0  0  0  0  0  0  0  0  0
   -4.8002   -1.5731    2.7806 H   0  0  0  0  0  0  0  0  0  0  0  0
   -5.9159   -0.3035    3.3342 H   0  0  0  0  0  0  0  0  0  0  0  0
   -4.3431    1.9928    2.9049 H   0  0  0  0  0  0  0  0  0  0  0  0
   -2.7999    1.7825    3.7234 H   0  0  0  0  0  0  0  0  0  0  0  0
   -2.3667    1.9201    1.4703 H   0  0  0  0  0  0  0  0  0  0  0  0
   -1.9942    0.2265    2.1084 H   0  0  0  0  0  0  0  0  0  0  0  0
   -3.8672    1.0792   -0.0389 H   0  0  0  0  0  0  0  0  0  0  0  0
   -3.1413   -1.6571    0.9207 H   0  0  0  0  0  0  0  0  0  0  0  0
   -2.3939   -0.1310   -1.5655 H   0  0  0  0  0  0  0  0  0  0  0  0
   -1.3515   -2.7368   -0.5239 H   0  0  0  0  0  0  0  0  0  0  0  0
   -2.6076   -2.5676   -1.8735 H   0  0  0  0  0  0  0  0  0  0  0  0
    0.0318   -2.4453   -2.4952 H   0  0  0  0  0  0  0  0  0  0  0  0
   -2.3262   -0.9238   -3.4348 H   0  0  0  0  0  0  0  0  0  0  0  0
   -0.8953   -1.4938   -4.3141 H   0  0  0  0  0  0  0  0  0  0  0  0
   -1.5247    1.1945   -3.5289 H   0  0  0  0  0  0  0  0  0  0  0  0
   -0.0460    0.6018   -4.3123 H   0  0  0  0  0  0  0  0  0  0  0  0
    1.0544    1.0687   -2.4011 H   0  0  0  0  0  0  0  0  0  0  0  0
   -0.4515    1.5234   -1.5856 H   0  0  0  0  0  0  0  0  0  0  0  0
    2.5004    0.9786    1.2681 H   0  0  0  0  0  0  0  0  0  0  0  0
    1.3032    1.4078    0.0342 H   0  0  0  0  0  0  0  0  0  0  0  0
    3.2005    2.8137   -0.2820 H   0  0  0  0  0  0  0  0  0  0  0  0
    3.2690    1.5218   -1.6057 H   0  0  0  0  0  0  0  0  0  0  0  0
    7.6924    2.3830    0.5740 H   0  0  0  0  0  0  0  0  0  0  0  0
    6.1688   -1.6167    0.8923 H   0  0  0  0  0  0  0  0  0  0  0  0
    3.9259   -1.8216   -0.7279 H   0  0  0  0  0  0  0  0  0  0  0  0
    3.5503   -1.7098    1.0002 H   0  0  0  0  0  0  0  0  0  0  0  0
   -0.9373    0.7272    0.0708 H   0  0  0  0  0  0  0  0  0  0  0  0
   -0.4907   -0.9586    0.7096 H   0  0  0  0  0  0  0  0  0  0  0  0
  1  2  1  0
  2  3  1  0
  3  4  1  0
  4  5  1  0
  5  6  1  0
  6  7  1  0
  7  8  1  0
  8  9  1  0
  9 10  1  0
 10 11  1  0
 11 12  1  0
 12 13  1  0
 13 14  1  0
 14 15  1  0
 15 16  1  0
 16 17  1  1
 17 18  2  0
 17 19  1  0
 19 20  1  0
 20 21  1  0
 21 22  1  0
 22 23  2  0
 23 24  1  0
 24 25  2  0
 25 26  1  0
 26 27  1  0
 26 28  1  0
 26 29  1  0
 25 30  1  0
 30 31  2  0
 31 32  1  0
 16 33  1  0
  8  3  1  0
 33 10  1  0
 16 12  1  0
 32 19  1  0
 31 22  1  0
  1 34  1  0
  1 35  1  0
  1 36  1  0
  3 37  1  1
  4 38  1  0
  4 39  1  0
  6 40  1  0
  6 41  1  0
  7 42  1  0
  7 43  1  0
  8 44  1  6
  9 45  1  0
 10 46  1  6
 11 47  1  0
 11 48  1  0
 12 49  1  6
 13 50  1  0
 13 51  1  0
 14 52  1  0
 14 53  1  0
 15 54  1  0
 15 55  1  0
 20 56  1  0
 20 57  1  0
 21 58  1  0
 21 59  1  0
 24 60  1  0
 30 61  1  0
 32 62  1  0
 32 63  1  0
 33 64  1  0
 33 65  1  0
M  END
$$$$
