
     RDKit          3D

 49 51  0  0  0  0  0  0  0  0999 V2000
   -4.2988    0.3882   -0.4067 C   0  0  1  0  0  0  0  0  0  0  0  0
   -5.1097   -0.6767    0.1212 N   0  0  0  0  0  0  0  0  0  0  0  0
   -4.5947    1.6725    0.3869 C   0  0  0  0  0  0  0  0  0  0  0  0
   -3.8213    2.7360   -0.3600 C   0  0  0  0  0  0  0  0  0  0  0  0
   -2.3895    2.5411   -0.0080 C   0  0  0  0  0  0  0  0  0  0  0  0
   -1.9251    1.1250    0.0547 C   0  0  0  0  0  0  0  0  0  0  0  0
   -2.8480    0.1085   -0.5185 C   0  0  1  0  0  0  0  0  0  0  0  0
   -2.5515   -1.1646    0.0943 N   0  0  0  0  0  0  0  0  0  0  0  0
   -1.2693   -1.7738    0.2375 C   0  0  0  0  0  0  0  0  0  0  0  0
   -0.1652   -1.1768   -0.2353 N   0  0  0  0  0  0  0  0  0  0  0  0
    1.0516   -1.7317   -0.1040 C   0  0  0  0  0  0  0  0  0  0  0  0
    2.3105   -1.2761   -0.5276 N   0  0  0  0  0  0  0  0  0  0  0  0
    3.1841   -0.1695   -0.4391 C   0  0  0  0  0  0  0  0  0  0  0  0
    4.5381   -0.3566   -0.2928 C   0  0  0  0  0  0  0  0  0  0  0  0
    5.4503    0.6778   -0.2263 C   0  0  0  0  0  0  0  0  0  0  0  0
    4.8847    1.9566   -0.3171 C   0  0  0  0  0  0  0  0  0  0  0  0
    3.5149    2.1928   -0.4643 C   0  0  0  0  0  0  0  0  0  0  0  0
    3.1220    3.6089   -0.5485 C   0  0  0  0  0  0  0  0  0  0  0  0
    2.6687    1.1024   -0.5246 C   0  0  0  0  0  0  0  0  0  0  0  0
    1.0491   -2.9250    0.5386 C   0  0  0  0  0  0  0  0  0  0  0  0
   -0.0329   -3.5997    1.0496 C   0  0  0  0  0  0  0  0  0  0  0  0
   -1.2112   -2.9619    0.8665 N   0  0  0  0  0  0  0  0  0  0  0  0
    2.2906   -3.6630    0.7636 C   0  0  0  0  0  0  0  0  0  0  0  0
    2.4409   -4.9275    1.3814 N   0  0  0  0  0  0  0  0  0  0  0  0
    3.5478   -3.5624    0.5633 O   0  0  0  0  0  0  0  0  0  0  0  0
   -4.7317    0.6243   -1.4258 H   0  0  0  0  0  0  0  0  0  0  0  0
   -5.1832   -1.4444   -0.5399 H   0  0  0  0  0  0  0  0  0  0  0  0
   -5.0446   -0.8592    1.1169 H   0  0  0  0  0  0  0  0  0  0  0  0
   -5.6870    1.8452    0.3474 H   0  0  0  0  0  0  0  0  0  0  0  0
   -4.1690    1.5195    1.3797 H   0  0  0  0  0  0  0  0  0  0  0  0
   -3.9309    2.5854   -1.4623 H   0  0  0  0  0  0  0  0  0  0  0  0
   -4.1153    3.7757   -0.0717 H   0  0  0  0  0  0  0  0  0  0  0  0
   -2.2262    3.0579    0.9647 H   0  0  0  0  0  0  0  0  0  0  0  0
   -1.8026    3.1310   -0.7498 H   0  0  0  0  0  0  0  0  0  0  0  0
   -0.9556    1.0542   -0.4785 H   0  0  0  0  0  0  0  0  0  0  0  0
   -1.7065    0.8847    1.1179 H   0  0  0  0  0  0  0  0  0  0  0  0
   -2.6060   -0.0367   -1.6108 H   0  0  0  0  0  0  0  0  0  0  0  0
   -3.3658   -1.7168    0.4713 H   0  0  0  0  0  0  0  0  0  0  0  0
    2.7695   -2.0179   -1.1547 H   0  0  0  0  0  0  0  0  0  0  0  0
    4.9869   -1.3215   -0.2247 H   0  0  0  0  0  0  0  0  0  0  0  0
    6.5134    0.5454   -0.1133 H   0  0  0  0  0  0  0  0  0  0  0  0
    5.6006    2.7958   -0.2657 H   0  0  0  0  0  0  0  0  0  0  0  0
    3.3369    4.1008    0.4104 H   0  0  0  0  0  0  0  0  0  0  0  0
    3.8170    4.0816   -1.3054 H   0  0  0  0  0  0  0  0  0  0  0  0
    2.0757    3.7178   -0.9058 H   0  0  0  0  0  0  0  0  0  0  0  0
    1.6208    1.3594   -0.6397 H   0  0  0  0  0  0  0  0  0  0  0  0
   -0.0726   -4.5394    1.5585 H   0  0  0  0  0  0  0  0  0  0  0  0
    2.2544   -5.9214    1.1644 H   0  0  0  0  0  0  0  0  0  0  0  0
    2.7857   -5.3657    2.2808 H   0  0  0  0  0  0  0  0  0  0  0  0
  1  2  1  0
  1  3  1  0
  3  4  1  0
  4  5  1  0
  5  6  1  0
  6  7  1  0
  7  8  1  0
  8  9  1  0
  9 10  2  0
 10 11  1  0
 11 12  1  0
 12 13  1  0
 13 14  2  0
 14 15  1  0
 15 16  2  0
 16 17  1  0
 17 18  1  0
 17 19  2  0
 11 20  2  0
 20 21  1  0
 21 22  2  0
 20 23  1  0
 23 24  1  0
 23 25  2  0
  7  1  1  0
 22  9  1  0
 19 13  1  0
  1 26  1  6
  2 27  1  0
  2 28  1  0
  3 29  1  0
  3 30  1  0
  4 31  1  0
  4 32  1  0
  5 33  1  0
  5 34  1  0
  6 35  1  0
  6 36  1  0
  7 37  1  6
  8 38  1  0
 12 39  1  0
 14 40  1  0
 15 41  1  0
 16 42  1  0
 18 43  1  0
 18 44  1  0
 18 45  1  0
 19 46  1  0
 21 47  1  0
 24 48  1  0
 24 49  1  0
M  END
$$$$
