@<TRIPOS>MOLECULE
*****
 34 35 0 0 0
SMALL
GASTEIGER

@<TRIPOS>ATOM
      1 C           5.3392    1.2595    0.0386 C.3     1  UNL1       -0.0306
      2 C           4.4952    0.1733   -0.5902 C.3     1  UNL1        0.0900
      3 O           3.1983    0.2684   -0.0527 O.3     1  UNL1       -0.4614
      4 C           2.1830   -0.6198   -0.4523 C.2     1  UNL1        0.3427
      5 O           2.5132   -1.4840   -1.3050 O.2     1  UNL1       -0.2448
      6 C           0.8061   -0.6301    0.0233 C.ar    1  UNL1        0.1025
      7 C          -0.3644   -0.0227   -0.3810 C.ar    1  UNL1        0.0562
      8 C          -0.3648    0.8814   -1.5670 C.3     1  UNL1       -0.0214
      9 N          -1.3774   -0.3834    0.4321 N.ar    1  UNL1       -0.2345
     10 N          -0.8676   -1.2042    1.3381 N.ar    1  UNL1       -0.1705
     11 C           0.4474   -1.3866    1.1362 C.ar    1  UNL1        0.0746
     12 C           1.2458   -2.2765    2.0358 C.3     1  UNL1       -0.0198
     13 C          -2.7153    0.0820    0.2704 C.ar    1  UNL1        0.0839
     14 C          -3.3574    1.0786    0.9738 C.ar    1  UNL1        0.0663
     15 CL         -2.4101    1.8569    2.2074 Cl      1  UNL1       -0.0813
     16 C          -4.6653    1.4018    0.6825 C.ar    1  UNL1       -0.0413
     17 C          -5.3949    0.7633   -0.3071 C.ar    1  UNL1       -0.0603
     18 C          -4.7420   -0.2431   -1.0153 C.ar    1  UNL1       -0.0597
     19 C          -3.4350   -0.5698   -0.7280 C.ar    1  UNL1       -0.0348
     20 H           5.6693    2.0163   -0.6865 H       1  UNL1        0.0262
     21 H           4.7896    1.8238    0.8264 H       1  UNL1        0.0262
     22 H           6.1754    0.7530    0.5591 H       1  UNL1        0.0262
     23 H           4.4642    0.3311   -1.7075 H       1  UNL1        0.0695
     24 H           4.9585   -0.8321   -0.4852 H       1  UNL1        0.0695
     25 H          -1.3477    1.4193   -1.6516 H       1  UNL1        0.0293
     26 H          -0.2419    0.2563   -2.4748 H       1  UNL1        0.0293
     27 H           0.4473    1.6274   -1.4526 H       1  UNL1        0.0293
     28 H           2.3145   -1.9527    1.9774 H       1  UNL1        0.0293
     29 H           1.2385   -3.3255    1.6725 H       1  UNL1        0.0293
     30 H           0.9054   -2.1693    3.0871 H       1  UNL1        0.0293
     31 H          -5.1183    2.1947    1.2696 H       1  UNL1        0.0633
     32 H          -6.4246    1.0214   -0.5327 H       1  UNL1        0.0618
     33 H          -5.3258   -0.7300   -1.7829 H       1  UNL1        0.0618
     34 H          -3.0383   -1.3789   -1.3579 H       1  UNL1        0.0639
@<TRIPOS>BOND
     1     1     2    1
     2     2     3    1
     3     3     4    1
     4     4     5    2
     5     4     6    1
     6     6     7   ar
     7     7     8    1
     8     7     9   ar
     9     9    10   ar
    10    10    11   ar
    11    11    12    1
    12     9    13    1
    13    13    14   ar
    14    14    15    1
    15    14    16   ar
    16    16    17   ar
    17    17    18   ar
    18    18    19   ar
    19    11     6   ar
    20    19    13   ar
    21     1    20    1
    22     1    21    1
    23     1    22    1
    24     2    23    1
    25     2    24    1
    26     8    25    1
    27     8    26    1
    28     8    27    1
    29    12    28    1
    30    12    29    1
    31    12    30    1
    32    16    31    1
    33    17    32    1
    34    18    33    1
    35    19    34    1
