
     RDKit          3D

 34 35  0  0  0  0  0  0  0  0999 V2000
    5.3392    1.2595    0.0386 C   0  0  0  0  0  0  0  0  0  0  0  0
    4.4952    0.1733   -0.5902 C   0  0  0  0  0  0  0  0  0  0  0  0
    3.1983    0.2684   -0.0527 O   0  0  0  0  0  0  0  0  0  0  0  0
    2.1830   -0.6198   -0.4523 C   0  0  0  0  0  0  0  0  0  0  0  0
    2.5132   -1.4840   -1.3050 O   0  0  0  0  0  0  0  0  0  0  0  0
    0.8061   -0.6301    0.0233 C   0  0  0  0  0  0  0  0  0  0  0  0
   -0.3644   -0.0227   -0.3810 C   0  0  0  0  0  0  0  0  0  0  0  0
   -0.3648    0.8814   -1.5670 C   0  0  0  0  0  0  0  0  0  0  0  0
   -1.3774   -0.3834    0.4321 N   0  0  0  0  0  0  0  0  0  0  0  0
   -0.8676   -1.2042    1.3381 N   0  0  0  0  0  0  0  0  0  0  0  0
    0.4474   -1.3866    1.1362 C   0  0  0  0  0  0  0  0  0  0  0  0
    1.2458   -2.2765    2.0358 C   0  0  0  0  0  0  0  0  0  0  0  0
   -2.7153    0.0820    0.2704 C   0  0  0  0  0  0  0  0  0  0  0  0
   -3.3574    1.0786    0.9738 C   0  0  0  0  0  0  0  0  0  0  0  0
   -2.4101    1.8569    2.2074 Cl  0  0  0  0  0  0  0  0  0  0  0  0
   -4.6653    1.4018    0.6825 C   0  0  0  0  0  0  0  0  0  0  0  0
   -5.3949    0.7633   -0.3071 C   0  0  0  0  0  0  0  0  0  0  0  0
   -4.7420   -0.2431   -1.0153 C   0  0  0  0  0  0  0  0  0  0  0  0
   -3.4350   -0.5698   -0.7280 C   0  0  0  0  0  0  0  0  0  0  0  0
    5.6693    2.0163   -0.6865 H   0  0  0  0  0  0  0  0  0  0  0  0
    4.7896    1.8238    0.8264 H   0  0  0  0  0  0  0  0  0  0  0  0
    6.1754    0.7530    0.5591 H   0  0  0  0  0  0  0  0  0  0  0  0
    4.4642    0.3311   -1.7075 H   0  0  0  0  0  0  0  0  0  0  0  0
    4.9585   -0.8321   -0.4852 H   0  0  0  0  0  0  0  0  0  0  0  0
   -1.3477    1.4193   -1.6516 H   0  0  0  0  0  0  0  0  0  0  0  0
   -0.2419    0.2563   -2.4748 H   0  0  0  0  0  0  0  0  0  0  0  0
    0.4473    1.6274   -1.4526 H   0  0  0  0  0  0  0  0  0  0  0  0
    2.3145   -1.9527    1.9774 H   0  0  0  0  0  0  0  0  0  0  0  0
    1.2385   -3.3255    1.6725 H   0  0  0  0  0  0  0  0  0  0  0  0
    0.9054   -2.1693    3.0871 H   0  0  0  0  0  0  0  0  0  0  0  0
   -5.1183    2.1947    1.2696 H   0  0  0  0  0  0  0  0  0  0  0  0
   -6.4246    1.0214   -0.5327 H   0  0  0  0  0  0  0  0  0  0  0  0
   -5.3258   -0.7300   -1.7829 H   0  0  0  0  0  0  0  0  0  0  0  0
   -3.0383   -1.3789   -1.3579 H   0  0  0  0  0  0  0  0  0  0  0  0
  1  2  1  0
  2  3  1  0
  3  4  1  0
  4  5  2  0
  4  6  1  0
  6  7  2  0
  7  8  1  0
  7  9  1  0
  9 10  1  0
 10 11  2  0
 11 12  1  0
  9 13  1  0
 13 14  2  0
 14 15  1  0
 14 16  1  0
 16 17  2  0
 17 18  1  0
 18 19  2  0
 11  6  1  0
 19 13  1  0
  1 20  1  0
  1 21  1  0
  1 22  1  0
  2 23  1  0
  2 24  1  0
  8 25  1  0
  8 26  1  0
  8 27  1  0
 12 28  1  0
 12 29  1  0
 12 30  1  0
 16 31  1  0
 17 32  1  0
 18 33  1  0
 19 34  1  0
M  END
$$$$
