@<TRIPOS>MOLECULE
*****
 67 72 0 0 0
SMALL
GASTEIGER

@<TRIPOS>ATOM
      1 C           0.1615    2.6628   -0.9468 C.3     1  UNL1       -0.0586
      2 C          -0.2537    1.9030    0.2742 C.3     1  UNL1       -0.0186
      3 C           0.5701    2.0957    1.5038 C.3     1  UNL1       -0.0586
      4 C          -0.7471    0.5297    0.0308 C.ar    1  UNL1       -0.0023
      5 C          -2.0681    0.1213   -0.0522 C.ar    1  UNL1        0.0622
      6 C          -3.2616    0.9638    0.0388 C.ar    1  UNL1        0.2536
      7 N          -3.3693    2.2625    0.2033 N.ar    1  UNL1       -0.1042
      8 N          -4.6424    2.6415    0.2344 N.ar    1  UNL1       -0.0714
      9 C          -5.3633    1.5068    0.0794 C.ar    1  UNL1        0.4167
     10 O          -6.7527    1.4819    0.0579 O.3     1  UNL1       -0.4449
     11 C          -7.4574    0.2659   -0.1136 C.3     1  UNL1        0.1072
     12 C          -8.2267    0.0284    1.1698 C.3     1  UNL1       -0.0030
     13 C          -9.5888   -0.5336    0.9283 C.3     1  UNL1       -0.0008
     14 N          -9.5496   -1.4376   -0.2004 N.3     1  UNL1       -0.3157
     15 C          -9.3822   -0.6962   -1.4130 C.3     1  UNL1       -0.0008
     16 C          -8.3517    0.3990   -1.3033 C.3     1  UNL1       -0.0030
     17 O          -4.5211    0.5305   -0.0336 O.2     1  UNL1       -0.3888
     18 C          -2.0911   -1.2520   -0.2516 C.ar    1  UNL1        0.0425
     19 N          -0.8355   -1.6915   -0.2938 N.ar    1  UNL1       -0.2341
     20 N          -0.4012   -2.9531   -0.4556 N.ar    1  UNL1       -0.1548
     21 C           0.8985   -3.2280   -0.4612 C.ar    1  UNL1        0.1388
     22 N           1.7485   -2.2187   -0.3043 N.ar    1  UNL1       -0.2167
     23 C           1.3235   -0.9232   -0.1388 C.ar    1  UNL1        0.1507
     24 N           2.3040    0.0560   -0.0014 N.pl3   1  UNL1       -0.2954
     25 C           3.5848   -0.3380    0.4699 C.ar    1  UNL1        0.0690
     26 C           4.7332   -0.1721   -0.2582 C.ar    1  UNL1       -0.0228
     27 C           6.0004   -0.5552    0.1920 C.ar    1  UNL1        0.0737
     28 C           7.1545   -0.3143   -0.6623 C.2     1  UNL1        0.2471
     29 O           6.9304    0.0640   -1.8720 O.2     1  UNL1       -0.2701
     30 N           8.4998   -0.4425   -0.3286 N.am    1  UNL1       -0.3084
     31 C           9.5947   -0.1797   -1.2603 C.3     1  UNL1        0.0235
     32 C          10.8810   -0.9041   -1.0909 C.3     1  UNL1       -0.0328
     33 C          10.7887    0.5075   -0.6261 C.3     1  UNL1       -0.0328
     34 C           6.0864   -1.1276    1.4306 C.ar    1  UNL1        0.1383
     35 F           7.2945   -1.5318    1.9176 F       1  UNL1       -0.2046
     36 C           4.9431   -1.3154    2.2066 C.ar    1  UNL1        0.0114
     37 C           3.7336   -0.9193    1.7097 C.ar    1  UNL1        0.1472
     38 F           2.6265   -1.1011    2.4617 F       1  UNL1       -0.2035
     39 C          -0.0043   -0.6412   -0.1287 C.ar    1  UNL1        0.1095
     40 H           0.3963    1.9104   -1.7575 H       1  UNL1        0.0235
     41 H           1.0853    3.2795   -0.7440 H       1  UNL1        0.0235
     42 H          -0.5706    3.3384   -1.3787 H       1  UNL1        0.0235
     43 H          -1.2217    2.4673    0.5668 H       1  UNL1        0.0344
     44 H           0.7773    1.1441    2.0535 H       1  UNL1        0.0235
     45 H           0.0771    2.7296    2.3026 H       1  UNL1        0.0235
     46 H           1.5194    2.6788    1.3042 H       1  UNL1        0.0235
     47 H          -6.7008   -0.5523   -0.2660 H       1  UNL1        0.0735
     48 H          -7.6066   -0.6748    1.7853 H       1  UNL1        0.0313
     49 H          -8.3391    0.9769    1.7448 H       1  UNL1        0.0313
     50 H          -9.9633   -1.0945    1.8074 H       1  UNL1        0.0425
     51 H         -10.3082    0.2712    0.6996 H       1  UNL1        0.0425
     52 H          -8.8805   -2.2122   -0.0602 H       1  UNL1        0.1219
     53 H          -9.1177   -1.4231   -2.2298 H       1  UNL1        0.0425
     54 H         -10.3551   -0.2168   -1.6783 H       1  UNL1        0.0425
     55 H          -7.7226    0.3782   -2.2158 H       1  UNL1        0.0313
     56 H          -8.8436    1.4055   -1.2582 H       1  UNL1        0.0313
     57 H          -3.0215   -1.8275   -0.3503 H       1  UNL1        0.0838
     58 H           1.2729   -4.2644   -0.5910 H       1  UNL1        0.1066
     59 H           2.1964    1.0133   -0.2515 H       1  UNL1        0.1537
     60 H           4.6611    0.2832   -1.2423 H       1  UNL1        0.0645
     61 H           8.7625   -0.7271    0.6148 H       1  UNL1        0.1493
     62 H           9.3366    0.1482   -2.2827 H       1  UNL1        0.0498
     63 H          11.4739   -1.0857   -1.9985 H       1  UNL1        0.0284
     64 H          10.9563   -1.7002   -0.3322 H       1  UNL1        0.0284
     65 H          10.8087    0.6519    0.4745 H       1  UNL1        0.0284
     66 H          11.3119    1.3173   -1.1792 H       1  UNL1        0.0284
     67 H           5.0259   -1.7592    3.1613 H       1  UNL1        0.0676
@<TRIPOS>BOND
     1     1     2    1
     2     2     3    1
     3     2     4    1
     4     4     5   ar
     5     5     6    1
     6     6     7   ar
     7     7     8   ar
     8     8     9   ar
     9     9    10    1
    10    10    11    1
    11    11    12    1
    12    12    13    1
    13    13    14    1
    14    14    15    1
    15    15    16    1
    16     9    17   ar
    17     5    18   ar
    18    18    19   ar
    19    19    20   ar
    20    20    21   ar
    21    21    22   ar
    22    22    23   ar
    23    23    24    1
    24    24    25    1
    25    25    26   ar
    26    26    27   ar
    27    27    28    1
    28    28    29    2
    29    28    30   am
    30    30    31    1
    31    31    32    1
    32    32    33    1
    33    27    34   ar
    34    34    35    1
    35    34    36   ar
    36    36    37   ar
    37    37    38    1
    38    23    39   ar
    39    39     4   ar
    40    17     6   ar
    41    39    19   ar
    42    16    11    1
    43    37    25   ar
    44    33    31    1
    45     1    40    1
    46     1    41    1
    47     1    42    1
    48     2    43    1
    49     3    44    1
    50     3    45    1
    51     3    46    1
    52    11    47    1
    53    12    48    1
    54    12    49    1
    55    13    50    1
    56    13    51    1
    57    14    52    1
    58    15    53    1
    59    15    54    1
    60    16    55    1
    61    16    56    1
    62    18    57    1
    63    21    58    1
    64    24    59    1
    65    26    60    1
    66    30    61    1
    67    31    62    1
    68    32    63    1
    69    32    64    1
    70    33    65    1
    71    33    66    1
    72    36    67    1
