
     RDKit          3D

 67 72  0  0  0  0  0  0  0  0999 V2000
    0.1615    2.6628   -0.9468 C   0  0  0  0  0  0  0  0  0  0  0  0
   -0.2537    1.9030    0.2742 C   0  0  0  0  0  0  0  0  0  0  0  0
    0.5701    2.0957    1.5038 C   0  0  0  0  0  0  0  0  0  0  0  0
   -0.7471    0.5297    0.0308 C   0  0  0  0  0  0  0  0  0  0  0  0
   -2.0681    0.1213   -0.0522 C   0  0  0  0  0  0  0  0  0  0  0  0
   -3.2616    0.9638    0.0388 C   0  0  0  0  0  0  0  0  0  0  0  0
   -3.3693    2.2625    0.2033 N   0  0  0  0  0  0  0  0  0  0  0  0
   -4.6424    2.6415    0.2344 N   0  0  0  0  0  0  0  0  0  0  0  0
   -5.3633    1.5068    0.0794 C   0  0  0  0  0  0  0  0  0  0  0  0
   -6.7527    1.4819    0.0579 O   0  0  0  0  0  0  0  0  0  0  0  0
   -7.4574    0.2659   -0.1136 C   0  0  0  0  0  0  0  0  0  0  0  0
   -8.2267    0.0284    1.1698 C   0  0  0  0  0  0  0  0  0  0  0  0
   -9.5888   -0.5336    0.9283 C   0  0  0  0  0  0  0  0  0  0  0  0
   -9.5496   -1.4376   -0.2004 N   0  0  0  0  0  0  0  0  0  0  0  0
   -9.3822   -0.6962   -1.4130 C   0  0  0  0  0  0  0  0  0  0  0  0
   -8.3517    0.3990   -1.3033 C   0  0  0  0  0  0  0  0  0  0  0  0
   -4.5211    0.5305   -0.0336 O   0  0  0  0  0  0  0  0  0  0  0  0
   -2.0911   -1.2520   -0.2516 C   0  0  0  0  0  0  0  0  0  0  0  0
   -0.8355   -1.6915   -0.2938 N   0  0  0  0  0  0  0  0  0  0  0  0
   -0.4012   -2.9531   -0.4556 N   0  0  0  0  0  0  0  0  0  0  0  0
    0.8985   -3.2280   -0.4612 C   0  0  0  0  0  0  0  0  0  0  0  0
    1.7485   -2.2187   -0.3043 N   0  0  0  0  0  0  0  0  0  0  0  0
    1.3235   -0.9232   -0.1388 C   0  0  0  0  0  0  0  0  0  0  0  0
    2.3040    0.0560   -0.0014 N   0  0  0  0  0  0  0  0  0  0  0  0
    3.5848   -0.3380    0.4699 C   0  0  0  0  0  0  0  0  0  0  0  0
    4.7332   -0.1721   -0.2582 C   0  0  0  0  0  0  0  0  0  0  0  0
    6.0004   -0.5552    0.1920 C   0  0  0  0  0  0  0  0  0  0  0  0
    7.1545   -0.3143   -0.6623 C   0  0  0  0  0  0  0  0  0  0  0  0
    6.9304    0.0640   -1.8720 O   0  0  0  0  0  0  0  0  0  0  0  0
    8.4998   -0.4425   -0.3286 N   0  0  0  0  0  0  0  0  0  0  0  0
    9.5947   -0.1797   -1.2603 C   0  0  0  0  0  0  0  0  0  0  0  0
   10.8810   -0.9041   -1.0909 C   0  0  0  0  0  0  0  0  0  0  0  0
   10.7887    0.5075   -0.6261 C   0  0  0  0  0  0  0  0  0  0  0  0
    6.0864   -1.1276    1.4306 C   0  0  0  0  0  0  0  0  0  0  0  0
    7.2945   -1.5318    1.9176 F   0  0  0  0  0  0  0  0  0  0  0  0
    4.9431   -1.3154    2.2066 C   0  0  0  0  0  0  0  0  0  0  0  0
    3.7336   -0.9193    1.7097 C   0  0  0  0  0  0  0  0  0  0  0  0
    2.6265   -1.1011    2.4617 F   0  0  0  0  0  0  0  0  0  0  0  0
   -0.0043   -0.6412   -0.1287 C   0  0  0  0  0  0  0  0  0  0  0  0
    0.3963    1.9104   -1.7575 H   0  0  0  0  0  0  0  0  0  0  0  0
    1.0853    3.2795   -0.7440 H   0  0  0  0  0  0  0  0  0  0  0  0
   -0.5706    3.3384   -1.3787 H   0  0  0  0  0  0  0  0  0  0  0  0
   -1.2217    2.4673    0.5668 H   0  0  0  0  0  0  0  0  0  0  0  0
    0.7773    1.1441    2.0535 H   0  0  0  0  0  0  0  0  0  0  0  0
    0.0771    2.7296    2.3026 H   0  0  0  0  0  0  0  0  0  0  0  0
    1.5194    2.6788    1.3042 H   0  0  0  0  0  0  0  0  0  0  0  0
   -6.7008   -0.5523   -0.2660 H   0  0  0  0  0  0  0  0  0  0  0  0
   -7.6066   -0.6748    1.7853 H   0  0  0  0  0  0  0  0  0  0  0  0
   -8.3391    0.9769    1.7448 H   0  0  0  0  0  0  0  0  0  0  0  0
   -9.9633   -1.0945    1.8074 H   0  0  0  0  0  0  0  0  0  0  0  0
  -10.3082    0.2712    0.6996 H   0  0  0  0  0  0  0  0  0  0  0  0
   -8.8805   -2.2122   -0.0602 H   0  0  0  0  0  0  0  0  0  0  0  0
   -9.1177   -1.4231   -2.2298 H   0  0  0  0  0  0  0  0  0  0  0  0
  -10.3551   -0.2168   -1.6783 H   0  0  0  0  0  0  0  0  0  0  0  0
   -7.7226    0.3782   -2.2158 H   0  0  0  0  0  0  0  0  0  0  0  0
   -8.8436    1.4055   -1.2582 H   0  0  0  0  0  0  0  0  0  0  0  0
   -3.0215   -1.8275   -0.3503 H   0  0  0  0  0  0  0  0  0  0  0  0
    1.2729   -4.2644   -0.5910 H   0  0  0  0  0  0  0  0  0  0  0  0
    2.1964    1.0133   -0.2515 H   0  0  0  0  0  0  0  0  0  0  0  0
    4.6611    0.2832   -1.2423 H   0  0  0  0  0  0  0  0  0  0  0  0
    8.7625   -0.7271    0.6148 H   0  0  0  0  0  0  0  0  0  0  0  0
    9.3366    0.1482   -2.2827 H   0  0  0  0  0  0  0  0  0  0  0  0
   11.4739   -1.0857   -1.9985 H   0  0  0  0  0  0  0  0  0  0  0  0
   10.9563   -1.7002   -0.3322 H   0  0  0  0  0  0  0  0  0  0  0  0
   10.8087    0.6519    0.4745 H   0  0  0  0  0  0  0  0  0  0  0  0
   11.3119    1.3173   -1.1792 H   0  0  0  0  0  0  0  0  0  0  0  0
    5.0259   -1.7592    3.1613 H   0  0  0  0  0  0  0  0  0  0  0  0
  1  2  1  0
  2  3  1  0
  2  4  1  0
  4  5  1  0
  5  6  1  0
  6  7  2  0
  7  8  1  0
  8  9  2  0
  9 10  1  0
 10 11  1  0
 11 12  1  0
 12 13  1  0
 13 14  1  0
 14 15  1  0
 15 16  1  0
  9 17  1  0
  5 18  2  0
 18 19  1  0
 19 20  1  0
 20 21  2  0
 21 22  1  0
 22 23  2  0
 23 24  1  0
 24 25  1  0
 25 26  2  0
 26 27  1  0
 27 28  1  0
 28 29  2  0
 28 30  1  0
 30 31  1  0
 31 32  1  0
 32 33  1  0
 27 34  2  0
 34 35  1  0
 34 36  1  0
 36 37  2  0
 37 38  1  0
 23 39  1  0
 39  4  2  0
 17  6  1  0
 39 19  1  0
 16 11  1  0
 37 25  1  0
 33 31  1  0
  1 40  1  0
  1 41  1  0
  1 42  1  0
  2 43  1  0
  3 44  1  0
  3 45  1  0
  3 46  1  0
 11 47  1  0
 12 48  1  0
 12 49  1  0
 13 50  1  0
 13 51  1  0
 14 52  1  0
 15 53  1  0
 15 54  1  0
 16 55  1  0
 16 56  1  0
 18 57  1  0
 21 58  1  0
 24 59  1  0
 26 60  1  0
 30 61  1  0
 31 62  1  0
 32 63  1  0
 32 64  1  0
 33 65  1  0
 33 66  1  0
 36 67  1  0
M  END
$$$$
