
     RDKit          3D

 32 32  0  0  0  0  0  0  0  0999 V2000
   -1.5257    3.4236   -2.6085 N   0  0  0  0  0  0  0  0  0  0  0  0
   -1.3815    2.3878   -2.2116 N   0  0  0  0  0  4  0  0  0  0  0  0
   -1.1890    1.1106   -1.7310 C   0  0  0  0  0  3  0  0  0  0  0  0
    0.1786    0.6295   -1.4724 C   0  0  0  0  0  0  0  0  0  0  0  0
    1.1110    1.1284   -2.1681 O   0  0  0  0  0  0  0  0  0  0  0  0
    0.4613   -0.3918   -0.4497 C   0  0  2  0  0  0  0  0  0  0  0  0
    0.1294    0.0910    0.9244 C   0  0  0  0  0  0  0  0  0  0  0  0
   -1.2545    0.4752    1.1609 C   0  0  0  0  0  0  0  0  0  0  0  0
   -1.6838    1.7748    1.0205 C   0  0  0  0  0  0  0  0  0  0  0  0
   -2.9956    2.1012    1.2431 C   0  0  0  0  0  0  0  0  0  0  0  0
   -3.9119    1.1401    1.6115 C   0  0  0  0  0  0  0  0  0  0  0  0
   -5.9199    1.6751    1.9460 I   0  0  0  0  0  0  0  0  0  0  0  0
   -3.5074   -0.1685    1.7590 C   0  0  0  0  0  0  0  0  0  0  0  0
   -2.1876   -0.4870    1.5331 C   0  0  0  0  0  0  0  0  0  0  0  0
    1.9060   -0.6813   -0.5102 N   0  0  0  0  0  0  0  0  0  0  0  0
    2.3652   -1.9822   -0.8124 C   0  0  0  0  0  0  0  0  0  0  0  0
    1.5231   -2.8931   -1.0298 O   0  0  0  0  0  0  0  0  0  0  0  0
    3.7981   -2.3512   -0.8916 C   0  0  0  0  0  0  0  0  0  0  0  0
    4.6697   -1.2435   -0.6281 N   0  0  0  0  0  0  0  0  0  0  0  0
   -2.0393    0.4844   -1.5520 H   0  0  0  0  0  0  0  0  0  0  0  0
   -0.0854   -1.3455   -0.6762 H   0  0  0  0  0  0  0  0  0  0  0  0
    0.3821   -0.7529    1.6325 H   0  0  0  0  0  0  0  0  0  0  0  0
    0.8329    0.9051    1.2101 H   0  0  0  0  0  0  0  0  0  0  0  0
   -0.9786    2.5533    0.7368 H   0  0  0  0  0  0  0  0  0  0  0  0
   -3.3432    3.1351    1.1326 H   0  0  0  0  0  0  0  0  0  0  0  0
   -4.2317   -0.9272    2.0501 H   0  0  0  0  0  0  0  0  0  0  0  0
   -1.8415   -1.5257    1.6450 H   0  0  0  0  0  0  0  0  0  0  0  0
    2.6038    0.0529   -0.3349 H   0  0  0  0  0  0  0  0  0  0  0  0
    3.9541   -3.1863   -0.1602 H   0  0  0  0  0  0  0  0  0  0  0  0
    4.0223   -2.7469   -1.9040 H   0  0  0  0  0  0  0  0  0  0  0  0
    5.6512   -1.5836   -0.7446 H   0  0  0  0  0  0  0  0  0  0  0  0
    4.4880   -0.8016    0.2796 H   0  0  0  0  0  0  0  0  0  0  0  0
  1  2  3  0
  2  3  1  0
  3  4  1  0
  4  5  2  0
  4  6  1  0
  6  7  1  0
  7  8  1  0
  8  9  2  0
  9 10  1  0
 10 11  2  0
 11 12  1  0
 11 13  1  0
 13 14  2  0
  6 15  1  0
 15 16  1  0
 16 17  2  0
 16 18  1  0
 18 19  1  0
 14  8  1  0
  3 20  1  0
  6 21  1  6
  7 22  1  0
  7 23  1  0
  9 24  1  0
 10 25  1  0
 13 26  1  0
 14 27  1  0
 15 28  1  0
 18 29  1  0
 18 30  1  0
 19 31  1  0
 19 32  1  0
M  CHG  2   2   1   3  -1
M  END
$$$$
