@<TRIPOS>MOLECULE
*****
 32 32 0 0 0
SMALL
GASTEIGER

@<TRIPOS>ATOM
      1 N          -1.5257    3.4236   -2.6085 N.1     1  UNL1        0.1774
      2 N          -1.3815    2.3878   -2.2116 N.1     1  UNL1       -0.0513
      3 C          -1.1890    1.1106   -1.7310 C.2     1  UNL1        0.1853
      4 C           0.1786    0.6295   -1.4724 C.2     1  UNL1        0.0896
      5 O           1.1110    1.1284   -2.1681 O.2     1  UNL1       -0.3254
      6 C           0.4613   -0.3918   -0.4497 C.3     1  UNL1        0.0613
      7 C           0.1294    0.0910    0.9244 C.3     1  UNL1       -0.0047
      8 C          -1.2545    0.4752    1.1609 C.ar    1  UNL1       -0.0452
      9 C          -1.6838    1.7748    1.0205 C.ar    1  UNL1       -0.0575
     10 C          -2.9956    2.1012    1.2431 C.ar    1  UNL1       -0.0484
     11 C          -3.9119    1.1401    1.6115 C.ar    1  UNL1        0.0134
     12 I          -5.9199    1.6751    1.9460 I       1  UNL1       -0.0438
     13 C          -3.5074   -0.1685    1.7590 C.ar    1  UNL1       -0.0484
     14 C          -2.1876   -0.4870    1.5331 C.ar    1  UNL1       -0.0575
     15 N           1.9060   -0.6813   -0.5102 N.am    1  UNL1       -0.3068
     16 C           2.3652   -1.9822   -0.8124 C.2     1  UNL1        0.2272
     17 O           1.5231   -2.8931   -1.0298 O.2     1  UNL1       -0.2744
     18 C           3.7981   -2.3512   -0.8916 C.3     1  UNL1        0.0707
     19 N           4.6697   -1.2435   -0.6281 N.3     1  UNL1       -0.3225
     20 H          -2.0393    0.4844   -1.5520 H       1  UNL1       -0.1011
     21 H          -0.0854   -1.3455   -0.6762 H       1  UNL1        0.0554
     22 H           0.3821   -0.7529    1.6325 H       1  UNL1        0.0334
     23 H           0.8329    0.9051    1.2101 H       1  UNL1        0.0334
     24 H          -0.9786    2.5533    0.7368 H       1  UNL1        0.0621
     25 H          -3.3432    3.1351    1.1326 H       1  UNL1        0.0628
     26 H          -4.2317   -0.9272    2.0501 H       1  UNL1        0.0628
     27 H          -1.8415   -1.5257    1.6450 H       1  UNL1        0.0621
     28 H           2.6038    0.0529   -0.3349 H       1  UNL1        0.1493
     29 H           3.9541   -3.1863   -0.1602 H       1  UNL1        0.0518
     30 H           4.0223   -2.7469   -1.9040 H       1  UNL1        0.0518
     31 H           5.6512   -1.5836   -0.7446 H       1  UNL1        0.1186
     32 H           4.4880   -0.8016    0.2796 H       1  UNL1        0.1186
@<TRIPOS>UNITY_ATOM_ATTR
2 1
charge 1
3 1
charge -1
@<TRIPOS>BOND
     1     1     2    3
     2     2     3    1
     3     3     4    1
     4     4     5    2
     5     4     6    1
     6     6     7    1
     7     7     8    1
     8     8     9   ar
     9     9    10   ar
    10    10    11   ar
    11    11    12    1
    12    11    13   ar
    13    13    14   ar
    14     6    15    1
    15    15    16   am
    16    16    17    2
    17    16    18    1
    18    18    19    1
    19    14     8   ar
    20     3    20    1
    21     6    21    1
    22     7    22    1
    23     7    23    1
    24     9    24    1
    25    10    25    1
    26    13    26    1
    27    14    27    1
    28    15    28    1
    29    18    29    1
    30    18    30    1
    31    19    31    1
    32    19    32    1
