@<TRIPOS>MOLECULE
*****
 75 81 0 0 0
SMALL
GASTEIGER

@<TRIPOS>ATOM
      1 C           2.9913   -1.8321    1.7835 C.3     1  UNL1        0.0373
      2 O           2.6855   -1.8487    0.4513 O.3     1  UNL1       -0.3725
      3 C           1.5460   -1.1800    0.0639 C.3     1  UNL1        0.1120
      4 C           1.1665   -1.4376   -1.3733 C.3     1  UNL1       -0.0193
      5 C          -0.0808   -0.6582   -1.7040 C.3     1  UNL1       -0.0423
      6 C          -0.7115   -0.1570   -0.4594 C.3     1  UNL1        0.0004
      7 C           0.1578    0.8669    0.1791 C.3     1  UNL1       -0.0368
      8 C           1.5810    0.2978    0.3429 C.3     1  UNL1        0.0213
      9 C           2.5672    1.2020   -0.2220 C.3     1  UNL1        0.0737
     10 C           2.2634    2.6694    0.2751 C.3     1  UNL1       -0.0352
     11 O           2.4108    1.3763   -1.6333 O.3     1  UNL1       -0.3880
     12 C           4.0485    1.0591   -0.0832 C.3     1  UNL1       -0.0088
     13 C           4.6690   -0.1772   -0.6542 C.3     1  UNL1       -0.0574
     14 C           4.7157    2.2322   -0.8756 C.3     1  UNL1       -0.0574
     15 C           4.5262    1.2942    1.3375 C.3     1  UNL1       -0.0574
     16 C          -2.1073    0.3488   -0.7478 C.3     1  UNL1        0.0210
     17 C          -3.0672   -0.7408   -1.0882 C.3     1  UNL1       -0.0111
     18 C          -2.5631   -2.1217   -0.9738 C.ar    1  UNL1       -0.0383
     19 C          -1.4700   -2.3953   -0.2262 C.ar    1  UNL1        0.0115
     20 C          -0.7326   -3.5160    0.0554 C.ar    1  UNL1        0.1663
     21 O           0.3224   -3.1457    0.9122 O.3     1  UNL1       -0.4811
     22 C           0.4591   -1.7596    0.9671 C.3     1  UNL1        0.1397
     23 C          -0.8872   -1.2627    0.5532 C.3     1  UNL1        0.0474
     24 C          -1.7472   -0.9307    1.6914 C.3     1  UNL1       -0.0263
     25 C          -2.6104    0.2707    1.5972 C.3     1  UNL1        0.0001
     26 N          -2.6396    1.0050    0.4178 N.3     1  UNL1       -0.2982
     27 C          -2.9972    2.3388    0.3551 C.3     1  UNL1        0.0020
     28 C          -4.4969    2.4684    0.6673 C.3     1  UNL1       -0.0282
     29 C          -5.1324    3.7894    0.6648 C.3     1  UNL1       -0.0488
     30 C          -5.4024    2.7733   -0.4779 C.3     1  UNL1       -0.0488
     31 C          -1.2948   -4.6069   -0.6132 C.ar    1  UNL1        0.1588
     32 O          -0.6238   -5.8134   -0.3973 O.3     1  UNL1       -0.5033
     33 C          -2.4256   -4.4887   -1.4215 C.ar    1  UNL1       -0.0162
     34 C          -3.0561   -3.2487   -1.6004 C.ar    1  UNL1       -0.0546
     35 H           3.9729   -2.3904    1.8805 H       1  UNL1        0.0524
     36 H           2.2820   -2.4703    2.3867 H       1  UNL1        0.0524
     37 H           3.1074   -0.8831    2.2869 H       1  UNL1        0.0524
     38 H           0.8857   -2.5314   -1.4467 H       1  UNL1        0.0294
     39 H           1.9601   -1.3153   -2.1053 H       1  UNL1        0.0294
     40 H          -0.7710   -1.2723   -2.3385 H       1  UNL1        0.0272
     41 H           0.1910    0.1882   -2.3518 H       1  UNL1        0.0272
     42 H           0.1288    1.7654   -0.4470 H       1  UNL1        0.0276
     43 H          -0.2956    1.1549    1.1462 H       1  UNL1        0.0276
     44 H           1.7107    0.3305    1.4779 H       1  UNL1        0.0358
     45 H           1.9634    2.6345    1.3159 H       1  UNL1        0.0257
     46 H           1.5733    3.1626   -0.4121 H       1  UNL1        0.0257
     47 H           3.2162    3.2098    0.1874 H       1  UNL1        0.0257
     48 H           1.7767    2.0851   -1.8510 H       1  UNL1        0.2102
     49 H           4.0978   -0.6869   -1.4389 H       1  UNL1        0.0236
     50 H           5.1067   -0.8694    0.1162 H       1  UNL1        0.0236
     51 H           5.6358    0.1057   -1.2275 H       1  UNL1        0.0236
     52 H           5.1804    2.9569   -0.2128 H       1  UNL1        0.0236
     53 H           5.5235    1.7662   -1.4592 H       1  UNL1        0.0236
     54 H           3.9976    2.6423   -1.6175 H       1  UNL1        0.0236
     55 H           5.0746    2.2458    1.4132 H       1  UNL1        0.0236
     56 H           5.2155    0.5037    1.6401 H       1  UNL1        0.0236
     57 H           3.6389    1.4239    1.9966 H       1  UNL1        0.0236
     58 H          -2.0391    1.0827   -1.5649 H       1  UNL1        0.0471
     59 H          -3.5568   -0.5717   -2.0901 H       1  UNL1        0.0329
     60 H          -3.9636   -0.7141   -0.3919 H       1  UNL1        0.0329
     61 H           0.6100   -1.4133    2.0188 H       1  UNL1        0.0771
     62 H          -1.1646   -0.9341    2.6838 H       1  UNL1        0.0287
     63 H          -2.4261   -1.8285    1.8601 H       1  UNL1        0.0287
     64 H          -3.6813   -0.0334    1.8277 H       1  UNL1        0.0427
     65 H          -2.3813    0.9702    2.4518 H       1  UNL1        0.0427
     66 H          -2.4511    2.9890    1.0905 H       1  UNL1        0.0429
     67 H          -2.8398    2.8118   -0.6365 H       1  UNL1        0.0429
     68 H          -4.8484    1.7064    1.3723 H       1  UNL1        0.0313
     69 H          -5.9915    3.9467    1.3579 H       1  UNL1        0.0268
     70 H          -4.5304    4.6825    0.4050 H       1  UNL1        0.0268
     71 H          -6.3999    2.3303   -0.5096 H       1  UNL1        0.0268
     72 H          -5.0167    3.0780   -1.4645 H       1  UNL1        0.0268
     73 H           0.1901   -6.0076   -0.9740 H       1  UNL1        0.2923
     74 H          -2.8088   -5.3861   -1.9110 H       1  UNL1        0.0655
     75 H          -3.9374   -3.1364   -2.2283 H       1  UNL1        0.0622
@<TRIPOS>BOND
     1     1     2    1
     2     3     2    1
     3     3     4    1
     4     4     5    1
     5     6     5    1
     6     6     7    1
     7     7     8    1
     8     8     9    1
     9     9    10    1
    10     9    11    1
    11     9    12    1
    12    12    13    1
    13    12    14    1
    14    12    15    1
    15     6    16    1
    16    16    17    1
    17    17    18    1
    18    18    19   ar
    19    19    20   ar
    20    20    21    1
    21    21    22    1
    22    22    23    1
    23    23    24    1
    24    24    25    1
    25    25    26    1
    26    26    27    1
    27    27    28    1
    28    28    29    1
    29    29    30    1
    30    20    31   ar
    31    31    32    1
    32    31    33   ar
    33    33    34   ar
    34     8     3    1
    35    26    16    1
    36    30    28    1
    37    22     3    1
    38    23     6    1
    39    34    18   ar
    40    23    19    1
    41     1    35    1
    42     1    36    1
    43     1    37    1
    44     4    38    1
    45     4    39    1
    46     5    40    1
    47     5    41    1
    48     7    42    1
    49     7    43    1
    50     8    44    1
    51    10    45    1
    52    10    46    1
    53    10    47    1
    54    11    48    1
    55    13    49    1
    56    13    50    1
    57    13    51    1
    58    14    52    1
    59    14    53    1
    60    14    54    1
    61    15    55    1
    62    15    56    1
    63    15    57    1
    64    16    58    1
    65    17    59    1
    66    17    60    1
    67    22    61    1
    68    24    62    1
    69    24    63    1
    70    25    64    1
    71    25    65    1
    72    27    66    1
    73    27    67    1
    74    28    68    1
    75    29    69    1
    76    29    70    1
    77    30    71    1
    78    30    72    1
    79    32    73    1
    80    33    74    1
    81    34    75    1
