
     RDKit          3D

 33 36  0  0  0  0  0  0  0  0999 V2000
    6.2276    1.4022    0.0691 O   0  0  0  0  0  0  0  0  0  0  0  0
    4.9472    0.8693    0.0027 C   0  0  0  0  0  0  0  0  0  0  0  0
    4.6760   -0.4791    0.1890 C   0  0  0  0  0  0  0  0  0  0  0  0
    3.4045   -1.0080    0.1231 C   0  0  0  0  0  0  0  0  0  0  0  0
    2.3419   -0.1635   -0.1407 C   0  0  0  0  0  0  0  0  0  0  0  0
    2.5802    1.1953   -0.3326 C   0  0  0  0  0  0  0  0  0  0  0  0
    3.8704    1.6963   -0.2599 C   0  0  0  0  0  0  0  0  0  0  0  0
    0.9723   -0.6605   -0.2242 C   0  0  0  0  0  0  0  0  0  0  0  0
   -0.1484    0.0912    0.1321 C   0  0  0  0  0  0  0  0  0  0  0  0
   -1.4247   -0.4137    0.0393 C   0  0  0  0  0  0  0  0  0  0  0  0
   -1.5089   -1.7073   -0.4286 C   0  0  0  0  0  0  0  0  0  0  0  0
   -2.7925   -2.2486   -0.5339 C   0  0  0  0  0  0  0  0  0  0  0  0
   -3.9298   -1.5455   -0.1939 C   0  0  0  0  0  0  0  0  0  0  0  0
   -3.7509   -0.2596    0.2642 C   0  0  0  0  0  0  0  0  0  0  0  0
   -2.5207    0.3378    0.3941 C   0  0  0  0  0  0  0  0  0  0  0  0
   -2.3395    1.6214    0.8513 C   0  0  0  0  0  0  0  0  0  0  0  0
   -3.4629    2.3143    1.1866 N   0  0  0  0  0  0  0  0  0  0  0  0
   -4.6820    1.7618    1.0725 C   0  0  0  0  0  0  0  0  0  0  0  0
   -4.8822    0.4775    0.6164 C   0  0  0  0  0  0  0  0  0  0  0  0
   -0.4484   -2.4563   -0.7795 N   0  0  0  0  0  0  0  0  0  0  0  0
    0.7945   -1.9499   -0.6837 C   0  0  0  0  0  0  0  0  0  0  0  0
    6.5012    2.0121    0.8535 H   0  0  0  0  0  0  0  0  0  0  0  0
    5.4912   -1.1605    0.3968 H   0  0  0  0  0  0  0  0  0  0  0  0
    3.1941   -2.0630    0.2692 H   0  0  0  0  0  0  0  0  0  0  0  0
    1.7623    1.8521   -0.5364 H   0  0  0  0  0  0  0  0  0  0  0  0
    4.0118    2.7557   -0.4149 H   0  0  0  0  0  0  0  0  0  0  0  0
    0.1025    1.0632    0.4698 H   0  0  0  0  0  0  0  0  0  0  0  0
   -2.9377   -3.2602   -0.8945 H   0  0  0  0  0  0  0  0  0  0  0  0
   -4.9009   -2.0157   -0.2955 H   0  0  0  0  0  0  0  0  0  0  0  0
   -1.4040    2.1349    0.9717 H   0  0  0  0  0  0  0  0  0  0  0  0
   -5.5418    2.3572    1.3530 H   0  0  0  0  0  0  0  0  0  0  0  0
   -5.8484    0.0009    0.5113 H   0  0  0  0  0  0  0  0  0  0  0  0
    1.6460   -2.5521   -0.9660 H   0  0  0  0  0  0  0  0  0  0  0  0
  1  2  1  0
  2  3  2  0
  3  4  1  0
  4  5  2  0
  5  6  1  0
  6  7  2  0
  5  8  1  0
  8  9  2  0
  9 10  1  0
 10 11  2  0
 11 12  1  0
 12 13  2  0
 13 14  1  0
 14 15  2  0
 15 16  1  0
 16 17  2  0
 17 18  1  0
 18 19  2  0
 11 20  1  0
 20 21  2  0
  7  2  1  0
 21  8  1  0
 15 10  1  0
 19 14  1  0
  1 22  1  0
  3 23  1  0
  4 24  1  0
  6 25  1  0
  7 26  1  0
  9 27  1  0
 12 28  1  0
 13 29  1  0
 16 30  1  0
 18 31  1  0
 19 32  1  0
 21 33  1  0
M  END
$$$$
