@<TRIPOS>MOLECULE
*****
 33 36 0 0 0
SMALL
GASTEIGER

@<TRIPOS>ATOM
      1 O           6.2276    1.4022    0.0691 O.3     1  UNL1       -0.5068
      2 C           4.9472    0.8693    0.0027 C.ar    1  UNL1        0.1169
      3 C           4.6760   -0.4791    0.1890 C.ar    1  UNL1       -0.0196
      4 C           3.4045   -1.0080    0.1231 C.ar    1  UNL1       -0.0505
      5 C           2.3419   -0.1635   -0.1407 C.ar    1  UNL1       -0.0162
      6 C           2.5802    1.1953   -0.3326 C.ar    1  UNL1       -0.0505
      7 C           3.8704    1.6963   -0.2599 C.ar    1  UNL1       -0.0196
      8 C           0.9723   -0.6605   -0.2242 C.ar    1  UNL1        0.0008
      9 C          -0.1484    0.0912    0.1321 C.ar    1  UNL1       -0.0428
     10 C          -1.4247   -0.4137    0.0393 C.ar    1  UNL1        0.0101
     11 C          -1.5089   -1.7073   -0.4286 C.ar    1  UNL1        0.0716
     12 C          -2.7925   -2.2486   -0.5339 C.ar    1  UNL1       -0.0351
     13 C          -3.9298   -1.5455   -0.1939 C.ar    1  UNL1       -0.0519
     14 C          -3.7509   -0.2596    0.2642 C.ar    1  UNL1       -0.0143
     15 C          -2.5207    0.3378    0.3941 C.ar    1  UNL1        0.0094
     16 C          -2.3395    1.6214    0.8513 C.ar    1  UNL1        0.0359
     17 N          -3.4629    2.3143    1.1866 N.ar    1  UNL1       -0.2626
     18 C          -4.6820    1.7618    1.0725 C.ar    1  UNL1        0.0281
     19 C          -4.8822    0.4775    0.6164 C.ar    1  UNL1       -0.0359
     20 N          -0.4484   -2.4563   -0.7795 N.ar    1  UNL1       -0.2544
     21 C           0.7945   -1.9499   -0.6837 C.ar    1  UNL1        0.0360
     22 H           6.5012    2.0121    0.8535 H       1  UNL1        0.2921
     23 H           5.4912   -1.1605    0.3968 H       1  UNL1        0.0654
     24 H           3.1941   -2.0630    0.2692 H       1  UNL1        0.0625
     25 H           1.7623    1.8521   -0.5364 H       1  UNL1        0.0625
     26 H           4.0118    2.7557   -0.4149 H       1  UNL1        0.0654
     27 H           0.1025    1.0632    0.4698 H       1  UNL1        0.0631
     28 H          -2.9377   -3.2602   -0.8945 H       1  UNL1        0.0639
     29 H          -4.9009   -2.0157   -0.2955 H       1  UNL1        0.0624
     30 H          -1.4040    2.1349    0.9717 H       1  UNL1        0.0836
     31 H          -5.5418    2.3572    1.3530 H       1  UNL1        0.0830
     32 H          -5.8484    0.0009    0.5113 H       1  UNL1        0.0639
     33 H           1.6460   -2.5521   -0.9660 H       1  UNL1        0.0836
@<TRIPOS>BOND
     1     1     2    1
     2     2     3   ar
     3     3     4   ar
     4     4     5   ar
     5     5     6   ar
     6     6     7   ar
     7     5     8    1
     8     8     9   ar
     9     9    10   ar
    10    10    11   ar
    11    11    12   ar
    12    12    13   ar
    13    13    14   ar
    14    14    15   ar
    15    15    16   ar
    16    16    17   ar
    17    17    18   ar
    18    18    19   ar
    19    11    20   ar
    20    20    21   ar
    21     7     2   ar
    22    21     8   ar
    23    15    10   ar
    24    19    14   ar
    25     1    22    1
    26     3    23    1
    27     4    24    1
    28     6    25    1
    29     7    26    1
    30     9    27    1
    31    12    28    1
    32    13    29    1
    33    16    30    1
    34    18    31    1
    35    19    32    1
    36    21    33    1
