@<TRIPOS>MOLECULE
*****
 40 42 0 0 0
SMALL
GASTEIGER

@<TRIPOS>ATOM
      1 C           2.8583    0.7251    0.9182 C.3     1  UNL1        0.0437
      2 C           3.6202   -0.4463    1.5498 C.3     1  UNL1       -0.0445
      3 C           3.8105    1.2371   -0.1627 C.3     1  UNL1       -0.0058
      4 C           3.6869    0.1431   -1.1614 C.ar    1  UNL1       -0.0230
      5 C           4.4990   -0.3598   -2.1495 C.ar    1  UNL1       -0.0567
      6 C           4.1349   -1.4183   -2.9713 C.ar    1  UNL1       -0.0614
      7 C           2.9000   -1.9936   -2.7888 C.ar    1  UNL1       -0.0599
      8 C           2.0606   -1.5058   -1.7989 C.ar    1  UNL1       -0.0389
      9 C           2.4474   -0.4360   -0.9796 C.ar    1  UNL1        0.0511
     10 N           1.7705    0.2402    0.0992 N.pl3   1  UNL1       -0.2474
     11 N           0.3865    0.3365    0.2177 N.am    1  UNL1       -0.2297
     12 C          -0.3119    0.9901    1.2655 C.2     1  UNL1        0.2603
     13 O           0.3467    1.5312    2.1683 O.2     1  UNL1       -0.2687
     14 C          -1.7646    1.0754    1.3633 C.ar    1  UNL1        0.0401
     15 C          -2.3030    1.7431    2.4389 C.ar    1  UNL1       -0.0481
     16 C          -3.6870    1.8688    2.6047 C.ar    1  UNL1       -0.0408
     17 C          -4.5626    1.3240    1.6895 C.ar    1  UNL1        0.0673
     18 CL         -6.2870    1.5075    1.9401 Cl      1  UNL1       -0.0815
     19 C          -4.0257    0.6542    0.6105 C.ar    1  UNL1        0.1239
     20 C          -2.6597    0.5399    0.4628 C.ar    1  UNL1       -0.0218
     21 S          -5.1382   -0.0358   -0.5487 S.O2    1  UNL1        0.0574
     22 N          -6.1452    1.1592   -1.2716 N.3     1  UNL1       -0.2035
     23 O          -5.9743   -1.0681    0.1884 O.2     1  UNL1       -0.1532
     24 O          -4.3275   -0.7643   -1.5809 O.2     1  UNL1       -0.1532
     25 H           2.6052    1.4878    1.6440 H       1  UNL1        0.0518
     26 H           3.2271   -0.6850    2.5495 H       1  UNL1        0.0248
     27 H           3.5478   -1.2768    0.8332 H       1  UNL1        0.0248
     28 H           4.6992   -0.2077    1.6614 H       1  UNL1        0.0248
     29 H           4.8385    1.3438    0.2337 H       1  UNL1        0.0332
     30 H           3.3773    2.1774   -0.5202 H       1  UNL1        0.0332
     31 H           5.4738    0.0835   -2.3041 H       1  UNL1        0.0621
     32 H           4.7560   -1.8297   -3.7535 H       1  UNL1        0.0618
     33 H           2.5795   -2.8196   -3.4081 H       1  UNL1        0.0618
     34 H           1.0875   -1.9731   -1.6694 H       1  UNL1        0.0637
     35 H          -0.2329   -0.0939   -0.5023 H       1  UNL1        0.1733
     36 H          -1.7201    2.2104    3.2192 H       1  UNL1        0.0625
     37 H          -4.1060    2.3991    3.4593 H       1  UNL1        0.0633
     38 H          -2.2589    0.0109   -0.3901 H       1  UNL1        0.0645
     39 H          -6.1182    1.1571   -2.3070 H       1  UNL1        0.1442
     40 H          -7.0908    1.2195   -0.8493 H       1  UNL1        0.1442
@<TRIPOS>BOND
     1     1     2    1
     2     1     3    1
     3     3     4    1
     4     4     5   ar
     5     5     6   ar
     6     6     7   ar
     7     7     8   ar
     8     8     9   ar
     9     9    10    1
    10    10    11    1
    11    11    12   am
    12    12    13    2
    13    12    14    1
    14    14    15   ar
    15    15    16   ar
    16    16    17   ar
    17    17    18    1
    18    17    19   ar
    19    19    20   ar
    20    19    21    1
    21    21    22    1
    22    21    23    2
    23    21    24    2
    24    10     1    1
    25    20    14   ar
    26     9     4   ar
    27     1    25    1
    28     2    26    1
    29     2    27    1
    30     2    28    1
    31     3    29    1
    32     3    30    1
    33     5    31    1
    34     6    32    1
    35     7    33    1
    36     8    34    1
    37    11    35    1
    38    15    36    1
    39    16    37    1
    40    20    38    1
    41    22    39    1
    42    22    40    1
