@<TRIPOS>MOLECULE
*****
 53 58 0 0 0
SMALL
GASTEIGER

@<TRIPOS>ATOM
      1 CL          4.2634   -0.6682    2.8932 Cl      1  UNL1       -0.0816
      2 C           3.3987   -0.3326    1.4148 C.ar    1  UNL1        0.0625
      3 C           2.0426   -0.0796    1.4974 C.ar    1  UNL1       -0.0338
      4 C           1.3203    0.1903    0.3539 C.ar    1  UNL1       -0.0135
      5 C          -0.1112    0.4642    0.3800 C.ar    1  UNL1        0.0185
      6 C          -0.8780    0.0964   -0.7038 C.ar    1  UNL1        0.0391
      7 N          -2.2230    0.3297   -0.7300 N.ar    1  UNL1       -0.2350
      8 C          -2.7964    0.9314    0.3309 C.ar    1  UNL1        0.1632
      9 C          -4.1035    1.2750    0.5560 C.ar    1  UNL1        0.0466
     10 C          -5.2465    1.0618   -0.3440 C.ar    1  UNL1       -0.0037
     11 C          -5.5719    2.0421   -1.2567 C.ar    1  UNL1       -0.0532
     12 C          -6.6565    1.8578   -2.1209 C.ar    1  UNL1       -0.0591
     13 C          -7.4233    0.7138   -2.0923 C.ar    1  UNL1       -0.0357
     14 C          -7.0926   -0.2630   -1.1769 C.ar    1  UNL1        0.0715
     15 N          -7.8419   -1.3801   -1.1497 N.ar    1  UNL1       -0.2550
     16 C          -7.5115   -2.3267   -0.2536 C.ar    1  UNL1        0.0283
     17 C          -6.4515   -2.1875    0.6169 C.ar    1  UNL1       -0.0430
     18 C          -5.6781   -1.0471    0.5966 C.ar    1  UNL1       -0.0506
     19 C          -6.0147   -0.0777   -0.3194 C.ar    1  UNL1        0.0082
     20 C          -4.1384    1.8650    1.8022 C.ar    1  UNL1        0.0597
     21 N          -2.8927    1.8728    2.3033 N.ar    1  UNL1       -0.1727
     22 N          -2.0936    1.3101    1.4129 N.ar    1  UNL1       -0.2206
     23 C          -0.7490    1.0762    1.4374 C.ar    1  UNL1        0.0406
     24 C           2.0148    0.1923   -0.8463 C.ar    1  UNL1       -0.0521
     25 C           3.3672   -0.0615   -0.9159 C.ar    1  UNL1       -0.0387
     26 C           4.0882   -0.3322    0.2372 C.ar    1  UNL1        0.0484
     27 N           5.4819   -0.5908    0.1416 N.pl3   1  UNL1       -0.3263
     28 C           6.3904    0.2792    0.8458 C.3     1  UNL1        0.0248
     29 C           7.7653    0.3179    0.2011 C.3     1  UNL1        0.0117
     30 N           7.5930   -0.0338   -1.1962 N.3     1  UNL1       -0.3130
     31 C           7.3159   -1.4789   -1.2204 C.3     1  UNL1        0.0117
     32 C           5.9302   -1.7173   -0.6591 C.3     1  UNL1        0.0248
     33 H           1.5247   -0.0866    2.4413 H       1  UNL1        0.0639
     34 H          -0.4135   -0.3777   -1.5351 H       1  UNL1        0.0837
     35 H          -4.9854    2.9538   -1.3016 H       1  UNL1        0.0624
     36 H          -6.9315    2.6231   -2.8527 H       1  UNL1        0.0618
     37 H          -8.2709    0.5577   -2.7605 H       1  UNL1        0.0639
     38 H          -8.1167   -3.2167   -0.2399 H       1  UNL1        0.0830
     39 H          -6.2308   -2.9804    1.3168 H       1  UNL1        0.0633
     40 H          -4.8564   -0.9157    1.2566 H       1  UNL1        0.0625
     41 H          -5.0505    2.2410    2.2503 H       1  UNL1        0.0855
     42 H          -0.1463    1.3619    2.2819 H       1  UNL1        0.0837
     43 H           1.4661    0.4045   -1.7769 H       1  UNL1        0.0624
     44 H           3.9111   -0.0584   -1.8700 H       1  UNL1        0.0637
     45 H           6.5352   -0.0985    1.8853 H       1  UNL1        0.0476
     46 H           6.0431    1.3176    0.9289 H       1  UNL1        0.0476
     47 H           8.4272   -0.4233    0.6926 H       1  UNL1        0.0439
     48 H           8.1884    1.3441    0.2207 H       1  UNL1        0.0439
     49 H           6.6980    0.4076   -1.5597 H       1  UNL1        0.1220
     50 H           8.0663   -1.9448   -0.5373 H       1  UNL1        0.0439
     51 H           7.4528   -1.8568   -2.2316 H       1  UNL1        0.0439
     52 H           5.2217   -1.8900   -1.4945 H       1  UNL1        0.0476
     53 H           5.9699   -2.6614   -0.0753 H       1  UNL1        0.0476
@<TRIPOS>BOND
     1     1     2    1
     2     2     3   ar
     3     3     4   ar
     4     4     5    1
     5     5     6   ar
     6     6     7   ar
     7     7     8   ar
     8     8     9   ar
     9     9    10    1
    10    10    11   ar
    11    11    12   ar
    12    12    13   ar
    13    13    14   ar
    14    14    15   ar
    15    15    16   ar
    16    16    17   ar
    17    17    18   ar
    18    18    19   ar
    19     9    20   ar
    20    20    21   ar
    21    21    22   ar
    22    22    23   ar
    23     4    24   ar
    24    24    25   ar
    25    25    26   ar
    26    26    27    1
    27    27    28    1
    28    28    29    1
    29    29    30    1
    30    30    31    1
    31    31    32    1
    32    26     2   ar
    33    32    27    1
    34    23     5   ar
    35    22     8   ar
    36    19    10   ar
    37    19    14   ar
    38     3    33    1
    39     6    34    1
    40    11    35    1
    41    12    36    1
    42    13    37    1
    43    16    38    1
    44    17    39    1
    45    18    40    1
    46    20    41    1
    47    23    42    1
    48    24    43    1
    49    25    44    1
    50    28    45    1
    51    28    46    1
    52    29    47    1
    53    29    48    1
    54    30    49    1
    55    31    50    1
    56    31    51    1
    57    32    52    1
    58    32    53    1
