
     RDKit          3D

 46 50  0  0  0  0  0  0  0  0999 V2000
   -1.1894   -3.0687    1.9719 N   0  0  0  0  0  0  0  0  0  0  0  0
   -1.4929   -2.1286    0.9516 C   0  0  0  0  0  0  0  0  0  0  0  0
   -1.9562   -0.9808    1.1366 N   0  0  0  0  0  0  0  0  0  0  0  0
   -2.2679   -0.0244    0.1441 C   0  0  0  0  0  0  0  0  0  0  0  0
   -2.3645   -0.6322   -1.2276 C   0  0  0  0  0  0  0  0  0  0  0  0
   -1.4758   -1.7750   -1.4680 C   0  0  0  0  0  0  0  0  0  0  0  0
   -1.2428   -2.5506   -0.3442 O   0  0  0  0  0  0  0  0  0  0  0  0
   -1.2488    1.0372    0.1217 C   0  0  0  0  0  0  0  0  0  0  0  0
    0.1074    0.6517   -0.0254 C   0  0  0  0  0  0  0  0  0  0  0  0
    1.1307    1.5496   -0.1016 C   0  0  0  0  0  0  0  0  0  0  0  0
    2.5033    1.2254   -0.2516 N   0  0  0  0  0  0  0  0  0  0  0  0
    3.0814   -0.0537   -0.3585 C   0  0  0  0  0  0  0  0  0  0  0  0
    2.3654   -1.0596   -0.3257 O   0  0  0  0  0  0  0  0  0  0  0  0
    4.5175   -0.2564   -0.5097 C   0  0  0  0  0  0  0  0  0  0  0  0
    5.0253   -1.5242   -0.6091 C   0  0  0  0  0  0  0  0  0  0  0  0
    6.3971   -1.7486   -0.7547 C   0  0  0  0  0  0  0  0  0  0  0  0
    7.2426   -0.6710   -0.7976 C   0  0  0  0  0  0  0  0  0  0  0  0
    8.9885   -0.8737   -0.9797 Cl  0  0  0  0  0  0  0  0  0  0  0  0
    6.7044    0.5912   -0.6954 C   0  0  0  0  0  0  0  0  0  0  0  0
    5.3760    0.7726   -0.5558 N   0  0  0  0  0  0  0  0  0  0  0  0
    0.7799    2.9154   -0.0254 C   0  0  0  0  0  0  0  0  0  0  0  0
   -0.5266    3.2843    0.1185 C   0  0  0  0  0  0  0  0  0  0  0  0
   -1.5513    2.3489    0.1946 C   0  0  0  0  0  0  0  0  0  0  0  0
   -2.8794    2.8008    0.3552 O   0  0  0  0  0  0  0  0  0  0  0  0
   -3.8842    1.8595    0.4416 C   0  0  0  0  0  0  0  0  0  0  0  0
   -5.1438    2.3707    0.6059 N   0  0  0  0  0  0  0  0  0  0  0  0
   -6.1985    1.5570    0.7096 C   0  0  0  0  0  0  0  0  0  0  0  0
   -5.9741    0.2090    0.6461 C   0  0  0  0  0  0  0  0  0  0  0  0
   -7.4805   -0.9518    0.7954 Br  0  0  0  0  0  0  0  0  0  0  0  0
   -4.7209   -0.3265    0.4811 C   0  0  0  0  0  0  0  0  0  0  0  0
   -3.6281    0.5516    0.3737 C   0  0  0  0  0  0  0  0  0  0  0  0
   -0.4240   -2.8390    2.6323 H   0  0  0  0  0  0  0  0  0  0  0  0
   -1.6921   -3.9672    2.0881 H   0  0  0  0  0  0  0  0  0  0  0  0
   -2.2072    0.1530   -2.0210 H   0  0  0  0  0  0  0  0  0  0  0  0
   -3.4395   -1.0092   -1.3283 H   0  0  0  0  0  0  0  0  0  0  0  0
   -0.4747   -1.4814   -1.9040 H   0  0  0  0  0  0  0  0  0  0  0  0
   -1.9703   -2.4265   -2.2908 H   0  0  0  0  0  0  0  0  0  0  0  0
    0.3391   -0.4027   -0.0569 H   0  0  0  0  0  0  0  0  0  0  0  0
    3.2323    2.0170   -0.2943 H   0  0  0  0  0  0  0  0  0  0  0  0
    4.3835   -2.4056   -0.5789 H   0  0  0  0  0  0  0  0  0  0  0  0
    6.7957   -2.7502   -0.8330 H   0  0  0  0  0  0  0  0  0  0  0  0
    7.3952    1.4235   -0.7324 H   0  0  0  0  0  0  0  0  0  0  0  0
    1.5604    3.6454   -0.0833 H   0  0  0  0  0  0  0  0  0  0  0  0
   -0.7975    4.3166    0.1771 H   0  0  0  0  0  0  0  0  0  0  0  0
   -7.1734    2.0063    0.8382 H   0  0  0  0  0  0  0  0  0  0  0  0
   -4.5212   -1.3790    0.4286 H   0  0  0  0  0  0  0  0  0  0  0  0
  1  2  1  0
  2  3  2  0
  3  4  1  0
  4  5  1  0
  5  6  1  0
  6  7  1  0
  4  8  1  0
  8  9  2  0
  9 10  1  0
 10 11  1  0
 11 12  1  0
 12 13  2  0
 12 14  1  0
 14 15  2  0
 15 16  1  0
 16 17  2  0
 17 18  1  0
 17 19  1  0
 19 20  2  0
 10 21  2  0
 21 22  1  0
 22 23  2  0
 23 24  1  0
 24 25  1  0
 25 26  2  0
 26 27  1  0
 27 28  2  0
 28 29  1  0
 28 30  1  0
 30 31  2  0
  7  2  1  0
 23  8  1  0
 31 25  1  0
 31  4  1  0
 20 14  1  0
  1 32  1  0
  1 33  1  0
  5 34  1  0
  5 35  1  0
  6 36  1  0
  6 37  1  0
  9 38  1  0
 11 39  1  0
 15 40  1  0
 16 41  1  0
 19 42  1  0
 21 43  1  0
 22 44  1  0
 27 45  1  0
 30 46  1  0
M  END
$$$$
