@<TRIPOS>MOLECULE
*****
 46 50 0 0 0
SMALL
GASTEIGER

@<TRIPOS>ATOM
      1 N          -1.1894   -3.0687    1.9719 N.pl3   1  UNL1       -0.3134
      2 C          -1.4929   -2.1286    0.9516 C.2     1  UNL1        0.2763
      3 N          -1.9562   -0.9808    1.1366 N.2     1  UNL1       -0.2204
      4 C          -2.2679   -0.0244    0.1441 C.3     1  UNL1        0.1279
      5 C          -2.3645   -0.6322   -1.2276 C.3     1  UNL1        0.0155
      6 C          -1.4758   -1.7750   -1.4680 C.3     1  UNL1        0.0953
      7 O          -1.2428   -2.5506   -0.3442 O.2     1  UNL1       -0.4658
      8 C          -1.2488    1.0372    0.1217 C.ar    1  UNL1        0.0288
      9 C           0.1074    0.6517   -0.0254 C.ar    1  UNL1       -0.0311
     10 C           1.1307    1.5496   -0.1016 C.ar    1  UNL1        0.0343
     11 N           2.5033    1.2254   -0.2516 N.am    1  UNL1       -0.2802
     12 C           3.0814   -0.0537   -0.3585 C.2     1  UNL1        0.2666
     13 O           2.3654   -1.0596   -0.3257 O.2     1  UNL1       -0.2682
     14 C           4.5175   -0.2564   -0.5097 C.ar    1  UNL1        0.1257
     15 C           5.0253   -1.5242   -0.6091 C.ar    1  UNL1       -0.0298
     16 C           6.3971   -1.7486   -0.7547 C.ar    1  UNL1       -0.0397
     17 C           7.2426   -0.6710   -0.7976 C.ar    1  UNL1        0.0591
     18 CL          8.9885   -0.8737   -0.9797 Cl      1  UNL1       -0.0820
     19 C           6.7044    0.5912   -0.6954 C.ar    1  UNL1        0.0467
     20 N           5.3760    0.7726   -0.5558 N.ar    1  UNL1       -0.2489
     21 C           0.7799    2.9154   -0.0254 C.ar    1  UNL1       -0.0370
     22 C          -0.5266    3.2843    0.1185 C.ar    1  UNL1       -0.0172
     23 C          -1.5513    2.3489    0.1946 C.ar    1  UNL1        0.1363
     24 O          -2.8794    2.8008    0.3552 O.3     1  UNL1       -0.4373
     25 C          -3.8842    1.8595    0.4416 C.ar    1  UNL1        0.2264
     26 N          -5.1438    2.3707    0.6059 N.ar    1  UNL1       -0.2196
     27 C          -6.1985    1.5570    0.7096 C.ar    1  UNL1        0.0454
     28 C          -5.9741    0.2090    0.6461 C.ar    1  UNL1        0.0365
     29 BR         -7.4805   -0.9518    0.7954 Br      1  UNL1       -0.0487
     30 C          -4.7209   -0.3265    0.4811 C.ar    1  UNL1       -0.0354
     31 C          -3.6281    0.5516    0.3737 C.ar    1  UNL1        0.0476
     32 H          -0.4240   -2.8390    2.6323 H       1  UNL1        0.1466
     33 H          -1.6921   -3.9672    2.0881 H       1  UNL1        0.1466
     34 H          -2.2072    0.1530   -2.0210 H       1  UNL1        0.0328
     35 H          -3.4395   -1.0092   -1.3283 H       1  UNL1        0.0328
     36 H          -0.4747   -1.4814   -1.9040 H       1  UNL1        0.0698
     37 H          -1.9703   -2.4265   -2.2908 H       1  UNL1        0.0698
     38 H           0.3391   -0.4027   -0.0569 H       1  UNL1        0.0641
     39 H           3.2323    2.0170   -0.2943 H       1  UNL1        0.1552
     40 H           4.3835   -2.4056   -0.5789 H       1  UNL1        0.0641
     41 H           6.7957   -2.7502   -0.8330 H       1  UNL1        0.0633
     42 H           7.3952    1.4235   -0.7324 H       1  UNL1        0.0844
     43 H           1.5604    3.6454   -0.0833 H       1  UNL1        0.0637
     44 H          -0.7975    4.3166    0.1771 H       1  UNL1        0.0655
     45 H          -7.1734    2.0063    0.8382 H       1  UNL1        0.0842
     46 H          -4.5212   -1.3790    0.4286 H       1  UNL1        0.0634
@<TRIPOS>BOND
     1     1     2    1
     2     2     3    2
     3     3     4    1
     4     4     5    1
     5     5     6    1
     6     6     7    1
     7     4     8    1
     8     8     9   ar
     9     9    10   ar
    10    10    11    1
    11    11    12   am
    12    12    13    2
    13    12    14    1
    14    14    15   ar
    15    15    16   ar
    16    16    17   ar
    17    17    18    1
    18    17    19   ar
    19    19    20   ar
    20    10    21   ar
    21    21    22   ar
    22    22    23   ar
    23    23    24    1
    24    24    25    1
    25    25    26   ar
    26    26    27   ar
    27    27    28   ar
    28    28    29    1
    29    28    30   ar
    30    30    31   ar
    31     7     2    1
    32    23     8   ar
    33    31    25   ar
    34    31     4    1
    35    20    14   ar
    36     1    32    1
    37     1    33    1
    38     5    34    1
    39     5    35    1
    40     6    36    1
    41     6    37    1
    42     9    38    1
    43    11    39    1
    44    15    40    1
    45    16    41    1
    46    19    42    1
    47    21    43    1
    48    22    44    1
    49    27    45    1
    50    30    46    1
