@<TRIPOS>MOLECULE
*****
 58 61 0 0 0
SMALL
GASTEIGER

@<TRIPOS>ATOM
      1 C          -4.8779    1.4351    2.1376 C.3     1  UNL1        0.0790
      2 O          -4.3764    1.0969    0.8861 O.3     1  UNL1       -0.4915
      3 C          -3.1435    0.4706    0.7607 C.ar    1  UNL1        0.1615
      4 C          -2.4258    0.1920    1.9231 C.ar    1  UNL1       -0.0159
      5 C          -1.2028   -0.4250    1.8614 C.ar    1  UNL1       -0.0503
      6 C          -0.6163   -0.8015    0.6719 C.ar    1  UNL1        0.0143
      7 C           0.7168   -1.4674    0.6318 C.3     1  UNL1        0.2647
      8 C           1.6354   -0.8356   -0.3318 C.ar    1  UNL1        0.0112
      9 C           1.6487   -1.2821   -1.6333 C.ar    1  UNL1       -0.0540
     10 C           2.4885   -0.7278   -2.5961 C.ar    1  UNL1       -0.0608
     11 C           3.3420    0.3011   -2.2590 C.ar    1  UNL1       -0.0540
     12 C           3.3427    0.7622   -0.9582 C.ar    1  UNL1       -0.0160
     13 C           4.2316    1.8530   -0.5541 C.ar    1  UNL1        0.0002
     14 C           4.6019    2.8667   -1.4136 C.ar    1  UNL1       -0.0512
     15 C           5.4340    3.8958   -1.0501 C.ar    1  UNL1       -0.0430
     16 C           5.9228    3.9076    0.2527 C.ar    1  UNL1        0.0276
     17 N           5.5615    2.9196    1.0894 N.ar    1  UNL1       -0.2627
     18 C           4.7393    1.9053    0.7253 C.ar    1  UNL1        0.0352
     19 C           2.4956    0.1934   -0.0144 C.ar    1  UNL1       -0.0463
     20 N           0.4935   -2.8673    0.3174 N.2     1  UNL1       -0.0891
     21 C           0.8043   -3.6399    1.2932 C.2     1  UNL1        0.3731
     22 N           0.6690   -5.0531    1.2178 N.pl3   1  UNL1       -0.2512
     23 N           1.2789   -2.8766    2.3705 N.am    1  UNL1       -0.1614
     24 C           1.7278   -3.4187    3.6614 C.3     1  UNL1        0.0573
     25 C           1.2486   -1.5089    1.9970 C.2     1  UNL1        0.3303
     26 O           1.6344   -0.5955    2.7818 O.2     1  UNL1       -0.2520
     27 C          -1.3256   -0.5253   -0.4623 C.ar    1  UNL1       -0.0086
     28 C          -2.5947    0.1113   -0.4493 C.ar    1  UNL1        0.1627
     29 O          -3.2253    0.3454   -1.6204 O.3     1  UNL1       -0.4857
     30 C          -4.3853    0.9006   -2.0127 C.3     1  UNL1        0.0948
     31 C          -5.3062   -0.0623   -2.7749 C.3     1  UNL1       -0.0281
     32 C          -4.1972    2.0783   -2.9743 C.3     1  UNL1       -0.0281
     33 H          -4.2063    2.1045    2.7224 H       1  UNL1        0.0660
     34 H          -5.8589    1.9615    1.9959 H       1  UNL1        0.0660
     35 H          -5.0571    0.4913    2.7194 H       1  UNL1        0.0660
     36 H          -2.8902    0.4898    2.8606 H       1  UNL1        0.0655
     37 H          -0.6722   -0.6297    2.7851 H       1  UNL1        0.0623
     38 H           0.9935   -2.0882   -1.9262 H       1  UNL1        0.0622
     39 H           2.4844   -1.0923   -3.6139 H       1  UNL1        0.0618
     40 H           3.9989    0.7382   -3.0021 H       1  UNL1        0.0624
     41 H           4.2107    2.8376   -2.4207 H       1  UNL1        0.0625
     42 H           5.7027    4.6734   -1.7503 H       1  UNL1        0.0633
     43 H           6.5830    4.6866    0.6101 H       1  UNL1        0.0829
     44 H           4.4634    1.1207    1.4198 H       1  UNL1        0.0836
     45 H           2.5284    0.5776    0.9727 H       1  UNL1        0.0628
     46 H          -0.1321   -5.4851    1.7232 H       1  UNL1        0.2412
     47 H           1.3154   -5.6787    0.6931 H       1  UNL1        0.2412
     48 H           1.6730   -2.6114    4.4171 H       1  UNL1        0.0602
     49 H           2.7689   -3.8099    3.5317 H       1  UNL1        0.0602
     50 H           1.0119   -4.2275    3.9154 H       1  UNL1        0.0602
     51 H          -0.9455   -0.7841   -1.4487 H       1  UNL1        0.0659
     52 H          -5.0134    1.2856   -1.1927 H       1  UNL1        0.0727
     53 H          -5.8690   -0.7092   -2.0796 H       1  UNL1        0.0265
     54 H          -4.7528   -0.6204   -3.5556 H       1  UNL1        0.0265
     55 H          -6.0566    0.5679   -3.2930 H       1  UNL1        0.0265
     56 H          -3.9605    1.6932   -3.9668 H       1  UNL1        0.0265
     57 H          -5.1936    2.5799   -3.0355 H       1  UNL1        0.0265
     58 H          -3.4662    2.7808   -2.5558 H       1  UNL1        0.0265
@<TRIPOS>BOND
     1     1     2    1
     2     2     3    1
     3     3     4   ar
     4     4     5   ar
     5     5     6   ar
     6     6     7    1
     7     7     8    1
     8     8     9   ar
     9     9    10   ar
    10    10    11   ar
    11    11    12   ar
    12    12    13    1
    13    13    14   ar
    14    14    15   ar
    15    15    16   ar
    16    16    17   ar
    17    17    18   ar
    18    12    19   ar
    19     7    20    1
    20    20    21    2
    21    21    22    1
    22    21    23    1
    23    23    24    1
    24    23    25   am
    25    25    26    2
    26     6    27   ar
    27    27    28   ar
    28    28    29    1
    29    29    30    1
    30    30    31    1
    31    30    32    1
    32    28     3   ar
    33    25     7    1
    34    19     8   ar
    35    18    13   ar
    36     1    33    1
    37     1    34    1
    38     1    35    1
    39     4    36    1
    40     5    37    1
    41     9    38    1
    42    10    39    1
    43    11    40    1
    44    14    41    1
    45    15    42    1
    46    16    43    1
    47    18    44    1
    48    19    45    1
    49    22    46    1
    50    22    47    1
    51    24    48    1
    52    24    49    1
    53    24    50    1
    54    27    51    1
    55    30    52    1
    56    31    53    1
    57    31    54    1
    58    31    55    1
    59    32    56    1
    60    32    57    1
    61    32    58    1
