@<TRIPOS>MOLECULE
*****
 54 56 0 0 0
SMALL
GASTEIGER

@<TRIPOS>ATOM
      1 C          -3.6839   -1.5347    1.1781 C.3     1  UNL1       -0.0239
      2 C          -2.4094   -1.2403    0.4708 C.ar    1  UNL1        0.0207
      3 C          -1.1673   -1.2831    1.1004 C.ar    1  UNL1       -0.0103
      4 C          -0.8789   -1.6158    2.5309 C.3     1  UNL1        0.0511
      5 C          -1.0033   -3.1070    2.6775 C.2     1  UNL1        0.2149
      6 N          -0.7186   -3.3632    4.0683 N.am    1  UNL1       -0.3291
      7 O          -1.2968   -3.8323    1.7084 O.2     1  UNL1       -0.2757
      8 C          -0.2733   -0.9514    0.1037 C.ar    1  UNL1        0.0072
      9 C          -0.9160   -0.7118   -1.0914 C.ar    1  UNL1        0.0501
     10 C          -0.1526   -0.3679   -2.1870 C.ar    1  UNL1       -0.0341
     11 C           1.2401   -0.2697   -2.0666 C.ar    1  UNL1       -0.0180
     12 C           1.9033   -0.5108   -0.8565 C.ar    1  UNL1        0.1212
     13 O           3.2275   -0.3379   -1.0625 O.3     1  UNL1       -0.4919
     14 C           4.2921   -0.4482   -0.1884 C.3     1  UNL1        0.0901
     15 C           4.3133    0.4758    0.9772 C.3     1  UNL1       -0.0077
     16 C           4.3400    1.9421    0.5423 C.3     1  UNL1        0.0525
     17 P           5.8131    2.2875   -0.4555 P.3     1  UNL1        0.3279
     18 O           7.1650    1.6284    0.3177 O.3     1  UNL1       -0.3240
     19 O           5.6587    1.6016   -1.9771 O.3     1  UNL1       -0.3240
     20 O           5.9610    3.7781   -0.6103 O.2     1  UNL1       -0.2588
     21 C           1.0957   -0.8505    0.2041 C.ar    1  UNL1       -0.0105
     22 N          -2.2185   -0.8968   -0.8318 N.ar    1  UNL1       -0.3394
     23 C          -3.2933   -0.7542   -1.7891 C.3     1  UNL1        0.0486
     24 C          -3.8026    0.6493   -1.7885 C.ar    1  UNL1       -0.0278
     25 C          -3.2971    1.6350   -2.6058 C.ar    1  UNL1       -0.0569
     26 C          -3.7362    2.9414   -2.6374 C.ar    1  UNL1       -0.0614
     27 C          -4.7687    3.2960   -1.7799 C.ar    1  UNL1       -0.0617
     28 C          -5.3126    2.3583   -0.9427 C.ar    1  UNL1       -0.0614
     29 C          -4.8250    1.0697   -0.9633 C.ar    1  UNL1       -0.0569
     30 H          -4.4292   -2.0380    0.5068 H       1  UNL1        0.0292
     31 H          -3.5164   -2.2413    2.0120 H       1  UNL1        0.0292
     32 H          -4.1460   -0.6222    1.6012 H       1  UNL1        0.0292
     33 H          -1.5160   -1.0573    3.2178 H       1  UNL1        0.0408
     34 H           0.1986   -1.3829    2.6941 H       1  UNL1        0.0408
     35 H          -0.3592   -4.3312    4.0585 H       1  UNL1        0.1449
     36 H          -0.3383   -4.3498    4.1612 H       1  UNL1        0.1449
     37 H          -0.7257   -0.1972   -3.0854 H       1  UNL1        0.0639
     38 H           1.6549    0.0134   -3.0474 H       1  UNL1        0.0655
     39 H           4.2828   -1.4939    0.2316 H       1  UNL1        0.0696
     40 H           5.2375   -0.3558   -0.7716 H       1  UNL1        0.0696
     41 H           3.4557    0.3859    1.6493 H       1  UNL1        0.0304
     42 H           5.2881    0.3219    1.5120 H       1  UNL1        0.0304
     43 H           3.4260    2.2496    0.0185 H       1  UNL1        0.0388
     44 H           4.4035    2.5408    1.4671 H       1  UNL1        0.0388
     45 H           7.0090    0.6809    0.4725 H       1  UNL1        0.2198
     46 H           6.4753    1.2291   -2.3503 H       1  UNL1        0.2198
     47 H           1.6773   -1.0267    1.0938 H       1  UNL1        0.0661
     48 H          -4.1285   -1.4461   -1.5548 H       1  UNL1        0.0541
     49 H          -2.8743   -0.9159   -2.8057 H       1  UNL1        0.0541
     50 H          -2.4931    1.4048   -3.2902 H       1  UNL1        0.0621
     51 H          -3.2933    3.6667   -3.3063 H       1  UNL1        0.0618
     52 H          -5.1458    4.3226   -1.7743 H       1  UNL1        0.0618
     53 H          -6.1043    2.6759   -0.3008 H       1  UNL1        0.0618
     54 H          -5.2942    0.3791   -0.2822 H       1  UNL1        0.0621
@<TRIPOS>BOND
     1     1     2    1
     2     2     3   ar
     3     3     4    1
     4     4     5    1
     5     5     6   am
     6     5     7    2
     7     3     8   ar
     8     8     9   ar
     9     9    10   ar
    10    10    11   ar
    11    11    12   ar
    12    12    13    1
    13    13    14    1
    14    14    15    1
    15    15    16    1
    16    16    17    1
    17    17    18    1
    18    17    19    1
    19    17    20    2
    20    12    21   ar
    21     9    22   ar
    22    22    23    1
    23    23    24    1
    24    24    25   ar
    25    25    26   ar
    26    26    27   ar
    27    27    28   ar
    28    28    29   ar
    29    22     2   ar
    30    29    24   ar
    31    21     8   ar
    32     1    30    1
    33     1    31    1
    34     1    32    1
    35     4    33    1
    36     4    34    1
    37     6    35    1
    38     6    36    1
    39    10    37    1
    40    11    38    1
    41    14    39    1
    42    14    40    1
    43    15    41    1
    44    15    42    1
    45    16    43    1
    46    16    44    1
    47    18    45    1
    48    19    46    1
    49    21    47    1
    50    23    48    1
    51    23    49    1
    52    25    50    1
    53    26    51    1
    54    27    52    1
    55    28    53    1
    56    29    54    1
