@<TRIPOS>MOLECULE
*****
 54 57 0 0 0
SMALL
GASTEIGER

@<TRIPOS>ATOM
      1 C          -5.3746    4.6750    4.2753 C.3     1  UNL1       -0.0319
      2 C          -4.9579    3.6566    3.2731 C.ar    1  UNL1        0.0068
      3 C          -5.6367    2.7573    2.5201 C.ar    1  UNL1        0.0383
      4 N          -4.9262    2.0029    1.7270 N.ar    1  UNL1       -0.2471
      5 C          -3.7521    2.0030    1.5790 C.ar    1  UNL1        0.1086
      6 C          -2.6836    1.3216    0.8084 C.ar    1  UNL1        0.0113
      7 C          -3.0984    0.3582   -0.0383 C.ar    1  UNL1       -0.0102
      8 C          -2.1565   -0.3353   -0.8046 C.ar    1  UNL1        0.1224
      9 O          -2.5828   -1.3127   -1.6628 O.3     1  UNL1       -0.4864
     10 C          -1.7442   -2.0616   -2.4681 C.3     1  UNL1        0.1254
     11 C          -2.0225   -3.5565   -2.1921 C.3     1  UNL1        0.0099
     12 C          -2.9315   -3.8876   -3.3548 C.3     1  UNL1        0.0512
     13 O          -2.2454   -3.2170   -4.3947 O.3     1  UNL1       -0.3760
     14 C          -2.2817   -1.9167   -3.8978 C.3     1  UNL1        0.0846
     15 C          -0.8213   -0.0040   -0.6641 C.ar    1  UNL1       -0.0078
     16 C          -0.3841    0.9855    0.2042 C.ar    1  UNL1        0.0408
     17 C           1.0010    1.3516    0.3710 C.2     1  UNL1        0.2447
     18 O           1.3039    2.2719    1.1937 O.2     1  UNL1       -0.2702
     19 N           2.0815    0.7537   -0.3256 N.am    1  UNL1       -0.3047
     20 C           3.4616    1.1499   -0.1299 C.3     1  UNL1        0.0487
     21 C           4.0823    1.7152   -1.3875 C.3     1  UNL1       -0.0423
     22 C           4.2910    0.0274    0.3481 C.ar    1  UNL1        0.0087
     23 C           5.1762    0.2164    1.3781 C.ar    1  UNL1        0.0363
     24 N           5.9233   -0.8225    1.7971 N.ar    1  UNL1       -0.2321
     25 C           5.8261   -2.0383    1.2348 C.ar    1  UNL1        0.2339
     26 C           6.6905   -3.1224    1.7634 C.3     1  UNL1        0.4522
     27 F           5.9412   -3.9829    2.5461 F       1  UNL1       -0.1632
     28 F           7.2536   -3.8339    0.7096 F       1  UNL1       -0.1632
     29 F           7.6998   -2.6010    2.5340 F       1  UNL1       -0.1632
     30 N           4.9555   -2.2024    0.2301 N.ar    1  UNL1       -0.2321
     31 C           4.1860   -1.2096   -0.2304 C.ar    1  UNL1        0.0363
     32 C          -1.3566    1.6398    0.9377 C.ar    1  UNL1       -0.0397
     33 S          -3.2359    3.3400    2.7608 S.2     1  UNL1       -0.0725
     34 H          -6.2228    4.2347    4.8348 H       1  UNL1        0.0283
     35 H          -5.6894    5.6036    3.7479 H       1  UNL1        0.0283
     36 H          -4.5076    4.8465    4.9533 H       1  UNL1        0.0283
     37 H          -6.7375    2.6774    2.5842 H       1  UNL1        0.0838
     38 H          -4.1328    0.0679   -0.1784 H       1  UNL1        0.0661
     39 H          -0.6760   -1.8706   -2.4274 H       1  UNL1        0.0757
     40 H          -1.0699   -4.1332   -2.2634 H       1  UNL1        0.0324
     41 H          -2.5031   -3.6498   -1.2168 H       1  UNL1        0.0324
     42 H          -3.8960   -3.3725   -3.1696 H       1  UNL1        0.0561
     43 H          -3.0280   -4.9562   -3.5376 H       1  UNL1        0.0561
     44 H          -1.6783   -1.2135   -4.4915 H       1  UNL1        0.0597
     45 H          -3.3495   -1.6171   -3.8840 H       1  UNL1        0.0597
     46 H          -0.0643   -0.5186   -1.2399 H       1  UNL1        0.0662
     47 H           1.8616   -0.0010   -1.0043 H       1  UNL1        0.1496
     48 H           3.4870    1.9603    0.6271 H       1  UNL1        0.0546
     49 H           3.7617    2.7795   -1.5208 H       1  UNL1        0.0251
     50 H           3.8421    1.0855   -2.2503 H       1  UNL1        0.0251
     51 H           5.1790    1.7348   -1.2527 H       1  UNL1        0.0251
     52 H           5.3176    1.1526    1.8832 H       1  UNL1        0.0834
     53 H           3.4923   -1.3484   -1.0341 H       1  UNL1        0.0834
     54 H          -1.0676    2.4162    1.6256 H       1  UNL1        0.0632
@<TRIPOS>BOND
     1     1     2    1
     2     2     3   ar
     3     3     4   ar
     4     4     5   ar
     5     5     6    1
     6     6     7   ar
     7     7     8   ar
     8     8     9    1
     9     9    10    1
    10    10    11    1
    11    11    12    1
    12    12    13    1
    13    13    14    1
    14     8    15   ar
    15    15    16   ar
    16    16    17    1
    17    17    18    2
    18    17    19   am
    19    19    20    1
    20    20    21    1
    21    20    22    1
    22    22    23   ar
    23    23    24   ar
    24    24    25   ar
    25    25    26    1
    26    26    27    1
    27    26    28    1
    28    26    29    1
    29    25    30   ar
    30    30    31   ar
    31    16    32   ar
    32     5    33   ar
    33    33     2   ar
    34    32     6   ar
    35    14    10    1
    36    31    22   ar
    37     1    34    1
    38     1    35    1
    39     1    36    1
    40     3    37    1
    41     7    38    1
    42    10    39    1
    43    11    40    1
    44    11    41    1
    45    12    42    1
    46    12    43    1
    47    14    44    1
    48    14    45    1
    49    15    46    1
    50    19    47    1
    51    20    48    1
    52    21    49    1
    53    21    50    1
    54    21    51    1
    55    23    52    1
    56    31    53    1
    57    32    54    1
