
     RDKit          3D

 55 57  0  0  0  0  0  0  0  0999 V2000
   -6.4719   -0.9495   -1.0156 C   0  0  0  0  0  0  0  0  0  0  0  0
   -5.2473   -0.6302   -0.1887 C   0  0  0  0  0  0  0  0  0  0  0  0
   -5.6076    0.3935    0.8482 C   0  0  0  0  0  0  0  0  0  0  0  0
   -4.1938   -0.2974   -1.0513 N   0  0  0  0  0  0  0  0  0  0  0  0
   -4.3193    0.7975   -1.9325 C   0  0  0  0  0  0  0  0  0  0  0  0
   -3.8704    2.1142   -1.3700 C   0  0  0  0  0  0  0  0  0  0  0  0
   -2.9946    1.9843   -0.2504 N   0  0  0  0  0  0  0  0  0  0  0  0
   -2.1237    0.8567   -0.3398 C   0  0  1  0  0  0  0  0  0  0  0  0
   -1.3104    0.6983    0.8923 C   0  0  0  0  0  0  0  0  0  0  0  0
   -1.5288    1.5491    1.8223 O   0  0  0  0  0  0  0  0  0  0  0  0
   -0.3454   -0.2857    1.1114 N   0  0  0  0  0  0  0  0  0  0  0  0
   -0.0040   -1.3006    0.1379 C   0  0  0  0  0  0  0  0  0  0  0  0
    1.3160   -1.9645    0.4835 C   0  0  0  0  0  0  0  0  0  0  0  0
    2.2424   -0.9836    0.9970 N   0  0  0  0  0  0  0  0  0  0  0  0
    3.5781   -0.9085    0.4615 C   0  0  0  0  0  0  0  0  0  0  0  0
    3.9586   -1.6847   -0.4509 O   0  0  0  0  0  0  0  0  0  0  0  0
    4.4994    0.0466    0.9527 N   0  0  0  0  0  0  0  0  0  0  0  0
    5.8241    0.1489    0.4485 C   0  0  0  0  0  0  0  0  0  0  0  0
    6.8984   -0.5434    0.9595 C   0  0  0  0  0  0  0  0  0  0  0  0
    8.1746   -0.4188    0.4426 C   0  0  0  0  0  0  0  0  0  0  0  0
    8.4170    0.4170   -0.6198 C   0  0  0  0  0  0  0  0  0  0  0  0
   10.0422    0.5917   -1.2973 Cl  0  0  0  0  0  0  0  0  0  0  0  0
    7.3568    1.1214   -1.1494 C   0  0  0  0  0  0  0  0  0  0  0  0
    7.6817    2.1821   -2.5027 Cl  0  0  0  0  0  0  0  0  0  0  0  0
    6.0774    0.9859   -0.6184 C   0  0  0  0  0  0  0  0  0  0  0  0
    1.8326   -0.0797    2.0454 C   0  0  0  0  0  0  0  0  0  0  0  0
    0.3789   -0.3331    2.3602 C   0  0  0  0  0  0  0  0  0  0  0  0
   -2.8641   -0.4434   -0.5685 C   0  0  0  0  0  0  0  0  0  0  0  0
   -6.8079   -1.9775   -0.7835 H   0  0  0  0  0  0  0  0  0  0  0  0
   -6.2251   -0.9575   -2.1108 H   0  0  0  0  0  0  0  0  0  0  0  0
   -7.3022   -0.2285   -0.8069 H   0  0  0  0  0  0  0  0  0  0  0  0
   -4.9712   -1.5552    0.3634 H   0  0  0  0  0  0  0  0  0  0  0  0
   -4.8023    0.5336    1.5982 H   0  0  0  0  0  0  0  0  0  0  0  0
   -6.4778   -0.0350    1.4275 H   0  0  0  0  0  0  0  0  0  0  0  0
   -5.9625    1.3424    0.4389 H   0  0  0  0  0  0  0  0  0  0  0  0
   -5.3395    0.8739   -2.4107 H   0  0  0  0  0  0  0  0  0  0  0  0
   -3.6439    0.5941   -2.8190 H   0  0  0  0  0  0  0  0  0  0  0  0
   -4.7357    2.7632   -1.0698 H   0  0  0  0  0  0  0  0  0  0  0  0
   -3.3281    2.7309   -2.1438 H   0  0  0  0  0  0  0  0  0  0  0  0
   -3.3681    2.2179    0.6693 H   0  0  0  0  0  0  0  0  0  0  0  0
   -1.4307    1.0368   -1.1990 H   0  0  0  0  0  0  0  0  0  0  0  0
    0.0603   -0.9175   -0.8812 H   0  0  0  0  0  0  0  0  0  0  0  0
   -0.7763   -2.1017    0.2198 H   0  0  0  0  0  0  0  0  0  0  0  0
    1.1767   -2.8249    1.1719 H   0  0  0  0  0  0  0  0  0  0  0  0
    1.7300   -2.3692   -0.4528 H   0  0  0  0  0  0  0  0  0  0  0  0
    4.1413    0.6857    1.7239 H   0  0  0  0  0  0  0  0  0  0  0  0
    6.7566   -1.2045    1.7854 H   0  0  0  0  0  0  0  0  0  0  0  0
    9.0194   -0.9688    0.8510 H   0  0  0  0  0  0  0  0  0  0  0  0
    5.2414    1.5461   -1.0414 H   0  0  0  0  0  0  0  0  0  0  0  0
    2.4876   -0.2457    2.9262 H   0  0  0  0  0  0  0  0  0  0  0  0
    1.9809    0.9589    1.6276 H   0  0  0  0  0  0  0  0  0  0  0  0
    0.0546    0.4565    3.0674 H   0  0  0  0  0  0  0  0  0  0  0  0
    0.3274   -1.3363    2.8381 H   0  0  0  0  0  0  0  0  0  0  0  0
   -2.2890   -1.0475   -1.3005 H   0  0  0  0  0  0  0  0  0  0  0  0
   -2.9133   -1.0345    0.3768 H   0  0  0  0  0  0  0  0  0  0  0  0
  1  2  1  0
  2  3  1  0
  2  4  1  0
  4  5  1  0
  5  6  1  0
  6  7  1  0
  7  8  1  0
  8  9  1  0
  9 10  2  0
  9 11  1  0
 11 12  1  0
 12 13  1  0
 13 14  1  0
 14 15  1  0
 15 16  2  0
 15 17  1  0
 17 18  1  0
 18 19  2  0
 19 20  1  0
 20 21  2  0
 21 22  1  0
 21 23  1  0
 23 24  1  0
 23 25  2  0
 14 26  1  0
 26 27  1  0
  8 28  1  0
 28  4  1  0
 27 11  1  0
 25 18  1  0
  1 29  1  0
  1 30  1  0
  1 31  1  0
  2 32  1  0
  3 33  1  0
  3 34  1  0
  3 35  1  0
  5 36  1  0
  5 37  1  0
  6 38  1  0
  6 39  1  0
  7 40  1  0
  8 41  1  6
 12 42  1  0
 12 43  1  0
 13 44  1  0
 13 45  1  0
 17 46  1  0
 19 47  1  0
 20 48  1  0
 25 49  1  0
 26 50  1  0
 26 51  1  0
 27 52  1  0
 27 53  1  0
 28 54  1  0
 28 55  1  0
M  END
$$$$
