@<TRIPOS>MOLECULE
*****
 55 57 0 0 0
SMALL
GASTEIGER

@<TRIPOS>ATOM
      1 C          -6.4719   -0.9495   -1.0156 C.3     1  UNL1       -0.0497
      2 C          -5.2473   -0.6302   -0.1887 C.3     1  UNL1        0.0049
      3 C          -5.6076    0.3935    0.8482 C.3     1  UNL1       -0.0497
      4 N          -4.1938   -0.2974   -1.0513 N.3     1  UNL1       -0.2968
      5 C          -4.3193    0.7975   -1.9325 C.3     1  UNL1        0.0118
      6 C          -3.8704    2.1142   -1.3700 C.3     1  UNL1        0.0094
      7 N          -2.9946    1.9843   -0.2504 N.3     1  UNL1       -0.3034
      8 C          -2.1237    0.8567   -0.3398 C.3     1  UNL1        0.0978
      9 C          -1.3104    0.6983    0.8923 C.2     1  UNL1        0.2339
     10 O          -1.5288    1.5491    1.8223 O.2     1  UNL1       -0.2738
     11 N          -0.3454   -0.2857    1.1114 N.am    1  UNL1       -0.2972
     12 C          -0.0040   -1.3006    0.1379 C.3     1  UNL1        0.0306
     13 C           1.3160   -1.9645    0.4835 C.3     1  UNL1        0.0320
     14 N           2.2424   -0.9836    0.9970 N.am    1  UNL1       -0.2824
     15 C           3.5781   -0.9085    0.4615 C.2     1  UNL1        0.3065
     16 O           3.9586   -1.6847   -0.4509 O.2     1  UNL1       -0.2523
     17 N           4.4994    0.0466    0.9527 N.am    1  UNL1       -0.2693
     18 C           5.8241    0.1489    0.4485 C.ar    1  UNL1        0.0362
     19 C           6.8984   -0.5434    0.9595 C.ar    1  UNL1       -0.0390
     20 C           8.1746   -0.4188    0.4426 C.ar    1  UNL1       -0.0402
     21 C           8.4170    0.4170   -0.6198 C.ar    1  UNL1        0.0594
     22 CL         10.0422    0.5917   -1.2973 Cl      1  UNL1       -0.0820
     23 C           7.3568    1.1214   -1.1494 C.ar    1  UNL1        0.0610
     24 CL          7.6817    2.1821   -2.5027 Cl      1  UNL1       -0.0820
     25 C           6.0774    0.9859   -0.6184 C.ar    1  UNL1       -0.0207
     26 C           1.8326   -0.0797    2.0454 C.3     1  UNL1        0.0320
     27 C           0.3789   -0.3331    2.3602 C.3     1  UNL1        0.0306
     28 C          -2.8641   -0.4434   -0.5685 C.3     1  UNL1        0.0231
     29 H          -6.8079   -1.9775   -0.7835 H       1  UNL1        0.0245
     30 H          -6.2251   -0.9575   -2.1108 H       1  UNL1        0.0245
     31 H          -7.3022   -0.2285   -0.8069 H       1  UNL1        0.0245
     32 H          -4.9712   -1.5552    0.3634 H       1  UNL1        0.0457
     33 H          -4.8023    0.5336    1.5982 H       1  UNL1        0.0245
     34 H          -6.4778   -0.0350    1.4275 H       1  UNL1        0.0245
     35 H          -5.9625    1.3424    0.4389 H       1  UNL1        0.0245
     36 H          -5.3395    0.8739   -2.4107 H       1  UNL1        0.0439
     37 H          -3.6439    0.5941   -2.8190 H       1  UNL1        0.0439
     38 H          -4.7357    2.7632   -1.0698 H       1  UNL1        0.0437
     39 H          -3.3281    2.7309   -2.1438 H       1  UNL1        0.0437
     40 H          -3.3681    2.2179    0.6693 H       1  UNL1        0.1227
     41 H          -1.4307    1.0368   -1.1990 H       1  UNL1        0.0569
     42 H           0.0603   -0.9175   -0.8812 H       1  UNL1        0.0480
     43 H          -0.7763   -2.1017    0.2198 H       1  UNL1        0.0480
     44 H           1.1767   -2.8249    1.1719 H       1  UNL1        0.0480
     45 H           1.7300   -2.3692   -0.4528 H       1  UNL1        0.0480
     46 H           4.1413    0.6857    1.7239 H       1  UNL1        0.1564
     47 H           6.7566   -1.2045    1.7854 H       1  UNL1        0.0636
     48 H           9.0194   -0.9688    0.8510 H       1  UNL1        0.0633
     49 H           5.2414    1.5461   -1.0414 H       1  UNL1        0.0651
     50 H           2.4876   -0.2457    2.9262 H       1  UNL1        0.0480
     51 H           1.9809    0.9589    1.6276 H       1  UNL1        0.0480
     52 H           0.0546    0.4565    3.0674 H       1  UNL1        0.0480
     53 H           0.3274   -1.3363    2.8381 H       1  UNL1        0.0480
     54 H          -2.2890   -1.0475   -1.3005 H       1  UNL1        0.0447
     55 H          -2.9133   -1.0345    0.3768 H       1  UNL1        0.0447
@<TRIPOS>BOND
     1     1     2    1
     2     2     3    1
     3     2     4    1
     4     4     5    1
     5     5     6    1
     6     6     7    1
     7     7     8    1
     8     8     9    1
     9     9    10    2
    10     9    11   am
    11    11    12    1
    12    12    13    1
    13    13    14    1
    14    14    15   am
    15    15    16    2
    16    15    17   am
    17    17    18    1
    18    18    19   ar
    19    19    20   ar
    20    20    21   ar
    21    21    22    1
    22    21    23   ar
    23    23    24    1
    24    23    25   ar
    25    14    26    1
    26    26    27    1
    27     8    28    1
    28    28     4    1
    29    27    11    1
    30    25    18   ar
    31     1    29    1
    32     1    30    1
    33     1    31    1
    34     2    32    1
    35     3    33    1
    36     3    34    1
    37     3    35    1
    38     5    36    1
    39     5    37    1
    40     6    38    1
    41     6    39    1
    42     7    40    1
    43     8    41    1
    44    12    42    1
    45    12    43    1
    46    13    44    1
    47    13    45    1
    48    17    46    1
    49    19    47    1
    50    20    48    1
    51    25    49    1
    52    26    50    1
    53    26    51    1
    54    27    52    1
    55    27    53    1
    56    28    54    1
    57    28    55    1
