@<TRIPOS>MOLECULE
*****
 69 72 0 0 0
SMALL
GASTEIGER

@<TRIPOS>ATOM
      1 C           6.6835    1.4127    2.3024 C.3     1  UNL1       -0.0397
      2 C           5.3676    1.3929    1.6016 C.ar    1  UNL1       -0.0504
      3 C           4.1873    1.2959    2.3042 C.ar    1  UNL1       -0.0581
      4 C           2.9866    1.2755    1.6116 C.ar    1  UNL1       -0.0494
      5 C           2.9204    1.3478    0.2516 C.ar    1  UNL1        0.0369
      6 C           1.6204    1.3128   -0.4608 C.2     1  UNL1        0.2472
      7 O           1.2333    2.4018   -0.9095 O.2     1  UNL1       -0.2700
      8 N           0.8953    0.1414   -0.6123 N.am    1  UNL1       -0.2872
      9 C           1.4940   -1.0595   -0.0025 C.3     1  UNL1        0.0169
     10 C           2.4223   -1.7965   -0.9012 C.3     1  UNL1       -0.0247
     11 C           2.9718   -2.9735   -0.0886 C.3     1  UNL1       -0.0055
     12 N           1.9246   -3.8473    0.3519 N.3     1  UNL1       -0.3299
     13 C          -0.3480    0.0207   -1.2943 C.3     1  UNL1        0.0867
     14 C          -1.4926    0.7687   -0.7116 C.ar    1  UNL1        0.1348
     15 N          -1.2511    2.0503   -0.3586 N.ar    1  UNL1       -0.2229
     16 C          -2.2399    2.8485    0.1320 C.ar    1  UNL1        0.1352
     17 S          -2.2370    4.4669    0.6492 S.2     1  UNL1        0.0322
     18 N          -3.9996    4.5597    1.0977 N.ar    1  UNL1       -0.2128
     19 C          -4.4224    3.2832    0.7894 C.ar    1  UNL1        0.0617
     20 C          -5.9027    3.0055    1.0511 C.3     1  UNL1       -0.0209
     21 C          -3.5137    2.4298    0.3006 C.ar    1  UNL1        0.0946
     22 C          -3.7546    1.0954   -0.0677 C.ar    1  UNL1        0.2645
     23 O          -4.8878    0.5525    0.0282 O.2     1  UNL1       -0.2668
     24 N          -2.7468    0.3278   -0.5514 N.ar    1  UNL1       -0.2902
     25 C          -3.0637   -1.0448   -0.9315 C.3     1  UNL1        0.0528
     26 C          -3.0498   -1.8205    0.3607 C.ar    1  UNL1       -0.0276
     27 C          -4.0749   -2.7339    0.5858 C.ar    1  UNL1       -0.0569
     28 C          -4.1103   -3.4104    1.7816 C.ar    1  UNL1       -0.0614
     29 C          -3.1642   -3.2038    2.7484 C.ar    1  UNL1       -0.0617
     30 C          -2.1680   -2.3002    2.5020 C.ar    1  UNL1       -0.0614
     31 C          -2.0951   -1.5915    1.2993 C.ar    1  UNL1       -0.0569
     32 C          -0.3448    0.3173   -2.7564 C.3     1  UNL1       -0.0210
     33 C           0.5907   -0.5585   -3.5687 C.3     1  UNL1       -0.0606
     34 C          -0.2319    1.7167   -3.2119 C.3     1  UNL1       -0.0606
     35 C           4.1261    1.4454   -0.4410 C.ar    1  UNL1       -0.0494
     36 C           5.3383    1.4684    0.2247 C.ar    1  UNL1       -0.0581
     37 H           6.6292    2.1415    3.1364 H       1  UNL1        0.0278
     38 H           7.4887    1.7539    1.6397 H       1  UNL1        0.0278
     39 H           6.9124    0.4227    2.7592 H       1  UNL1        0.0278
     40 H           4.2065    1.2366    3.3705 H       1  UNL1        0.0620
     41 H           2.0702    1.2004    2.1756 H       1  UNL1        0.0625
     42 H           0.6461   -1.7400    0.2435 H       1  UNL1        0.0465
     43 H           2.0313   -0.8310    0.9294 H       1  UNL1        0.0465
     44 H           3.2973   -1.2317   -1.2320 H       1  UNL1        0.0293
     45 H           1.8726   -2.2922   -1.7432 H       1  UNL1        0.0293
     46 H           3.6069   -2.5930    0.7526 H       1  UNL1        0.0422
     47 H           3.6632   -3.6092   -0.7092 H       1  UNL1        0.0422
     48 H           1.0693   -3.6635   -0.1848 H       1  UNL1        0.1182
     49 H           1.8477   -3.9131    1.3709 H       1  UNL1        0.1182
     50 H          -0.6876   -1.0814   -1.2415 H       1  UNL1        0.0584
     51 H          -6.2906    2.3521    0.2568 H       1  UNL1        0.0293
     52 H          -6.4783    3.9342    1.0293 H       1  UNL1        0.0293
     53 H          -6.0179    2.4586    2.0106 H       1  UNL1        0.0293
     54 H          -2.4210   -1.5139   -1.6296 H       1  UNL1        0.0543
     55 H          -4.1541   -1.0455   -1.2955 H       1  UNL1        0.0543
     56 H          -4.8405   -2.9131   -0.1697 H       1  UNL1        0.0621
     57 H          -4.8885   -4.1344    2.0128 H       1  UNL1        0.0618
     58 H          -3.1444   -3.7076    3.7142 H       1  UNL1        0.0618
     59 H          -1.4054   -2.1226    3.2686 H       1  UNL1        0.0618
     60 H          -1.2838   -0.8656    1.1755 H       1  UNL1        0.0621
     61 H          -1.3821   -0.0316   -3.1115 H       1  UNL1        0.0318
     62 H           1.6206   -0.2940   -3.2979 H       1  UNL1        0.0233
     63 H           0.4625   -0.2214   -4.6353 H       1  UNL1        0.0233
     64 H           0.3269   -1.6126   -3.5056 H       1  UNL1        0.0233
     65 H           0.8001    2.0301   -3.5119 H       1  UNL1        0.0233
     66 H          -0.7769    1.7686   -4.2277 H       1  UNL1        0.0233
     67 H          -0.7804    2.4711   -2.6234 H       1  UNL1        0.0233
     68 H           4.0652    1.5024   -1.5240 H       1  UNL1        0.0625
     69 H           6.2713    1.5483   -0.3094 H       1  UNL1        0.0620
@<TRIPOS>BOND
     1     1     2    1
     2     2     3   ar
     3     3     4   ar
     4     4     5   ar
     5     5     6    1
     6     6     7    2
     7     6     8   am
     8     8     9    1
     9     9    10    1
    10    10    11    1
    11    11    12    1
    12     8    13    1
    13    13    14    1
    14    14    15   ar
    15    15    16   ar
    16    16    17   ar
    17    17    18   ar
    18    18    19   ar
    19    19    20    1
    20    19    21   ar
    21    21    22   ar
    22    22    23    2
    23    22    24   ar
    24    24    25    1
    25    25    26    1
    26    26    27   ar
    27    27    28   ar
    28    28    29   ar
    29    29    30   ar
    30    30    31   ar
    31    13    32    1
    32    32    33    1
    33    32    34    1
    34     5    35   ar
    35    35    36   ar
    36    36     2   ar
    37    24    14   ar
    38    31    26   ar
    39    21    16   ar
    40     1    37    1
    41     1    38    1
    42     1    39    1
    43     3    40    1
    44     4    41    1
    45     9    42    1
    46     9    43    1
    47    10    44    1
    48    10    45    1
    49    11    46    1
    50    11    47    1
    51    12    48    1
    52    12    49    1
    53    13    50    1
    54    20    51    1
    55    20    52    1
    56    20    53    1
    57    25    54    1
    58    25    55    1
    59    27    56    1
    60    28    57    1
    61    29    58    1
    62    30    59    1
    63    31    60    1
    64    32    61    1
    65    33    62    1
    66    33    63    1
    67    33    64    1
    68    34    65    1
    69    34    66    1
    70    34    67    1
    71    35    68    1
    72    36    69    1
