@<TRIPOS>MOLECULE
*****
 58 61 0 0 0
SMALL
GASTEIGER

@<TRIPOS>ATOM
      1 C           6.5938   -0.4531   -2.0704 C.3     1  UNL1       -0.0418
      2 C           5.6454   -0.6847   -0.9188 C.3     1  UNL1        0.0523
      3 C           4.7164   -1.8094   -1.3129 C.3     1  UNL1       -0.0418
      4 C           6.4810   -1.1766    0.2503 C.3     1  UNL1        0.0649
      5 O           7.4493   -0.2133    0.6088 O.3     1  UNL1       -0.3929
      6 N           4.9527    0.5356   -0.6050 N.am    1  UNL1       -0.3040
      7 C           3.9842    0.6454    0.4339 C.2     1  UNL1        0.2481
      8 O           3.7458   -0.4110    1.0946 O.2     1  UNL1       -0.2701
      9 C           3.3167    1.9143    0.7059 C.ar    1  UNL1        0.0815
     10 C           3.8865    3.1655    0.8721 C.ar    1  UNL1        0.0178
     11 N           2.9312    4.0552    1.1023 N.ar    1  UNL1       -0.3438
     12 C           1.7447    3.4468    1.0963 C.ar    1  UNL1        0.1574
     13 N           0.4736    3.8953    1.2764 N.ar    1  UNL1       -0.2338
     14 C          -0.5187    2.9975    1.2043 C.ar    1  UNL1        0.0575
     15 C          -0.3473    1.6477    0.9596 C.ar    1  UNL1        0.1104
     16 C          -1.4776    0.7275    0.8962 C.ar    1  UNL1        0.1201
     17 N          -2.7772    0.9991    1.0454 N.ar    1  UNL1       -0.1685
     18 N          -3.4975   -0.1050    0.9212 N.ar    1  UNL1       -0.2629
     19 C          -4.9311   -0.2140    1.0191 C.3     1  UNL1        0.0446
     20 C          -5.6123   -0.0358   -0.3147 C.3     1  UNL1       -0.0050
     21 C          -7.1240   -0.1610   -0.1314 C.3     1  UNL1        0.0799
     22 O          -7.4472   -1.4097    0.3824 O.3     1  UNL1       -0.3895
     23 C          -7.8409    0.0121   -1.4523 C.3     1  UNL1        0.0702
     24 O          -7.5663    1.2470   -2.0322 O.3     1  UNL1       -0.3925
     25 C          -2.6884   -1.1659    0.6813 C.ar    1  UNL1        0.0723
     26 C          -2.9040   -2.5063    0.4767 C.ar    1  UNL1       -0.0008
     27 C          -1.8451   -3.3437    0.2521 C.ar    1  UNL1        0.1254
     28 F          -2.1046   -4.6614    0.0562 F       1  UNL1       -0.2054
     29 C          -0.5643   -2.8710    0.2272 C.ar    1  UNL1       -0.0257
     30 C          -0.3693   -1.5127    0.4365 C.ar    1  UNL1       -0.0477
     31 C          -1.3978   -0.6251    0.6666 C.ar    1  UNL1        0.0293
     32 N           0.9208    1.2273    0.7846 N.ar    1  UNL1       -0.2397
     33 C           1.9568    2.1068    0.8502 C.ar    1  UNL1        0.1202
     34 H           7.6503   -0.6768   -1.7940 H       1  UNL1        0.0251
     35 H           6.5612    0.6139   -2.3432 H       1  UNL1        0.0251
     36 H           6.3128   -1.0695   -2.9731 H       1  UNL1        0.0251
     37 H           5.3762   -2.6518   -1.6521 H       1  UNL1        0.0251
     38 H           4.1383   -2.2009   -0.4601 H       1  UNL1        0.0251
     39 H           4.0945   -1.5597   -2.1965 H       1  UNL1        0.0251
     40 H           7.0385   -2.0862   -0.0310 H       1  UNL1        0.0578
     41 H           5.8831   -1.3500    1.1644 H       1  UNL1        0.0578
     42 H           6.9833    0.6616    0.6905 H       1  UNL1        0.2095
     43 H           5.1534    1.4140   -1.1620 H       1  UNL1        0.1496
     44 H           4.9620    3.3265    0.8103 H       1  UNL1        0.0816
     45 H           3.0393    5.0941    1.2700 H       1  UNL1        0.1668
     46 H          -1.5281    3.3506    1.3469 H       1  UNL1        0.0853
     47 H          -5.2633   -1.1483    1.4740 H       1  UNL1        0.0510
     48 H          -5.2643    0.6211    1.6876 H       1  UNL1        0.0510
     49 H          -5.2516   -0.7447   -1.0755 H       1  UNL1        0.0309
     50 H          -5.4308    0.9854   -0.7122 H       1  UNL1        0.0309
     51 H          -7.4978    0.5909    0.5864 H       1  UNL1        0.0617
     52 H          -7.7697   -1.9698   -0.3564 H       1  UNL1        0.2099
     53 H          -7.5973   -0.8295   -2.1100 H       1  UNL1        0.0583
     54 H          -8.9311    0.0047   -1.2342 H       1  UNL1        0.0583
     55 H          -7.4582    1.9638   -1.3862 H       1  UNL1        0.2095
     56 H          -3.9210   -2.9082    0.4904 H       1  UNL1        0.0667
     57 H           0.2779   -3.5291    0.0487 H       1  UNL1        0.0646
     58 H           0.6574   -1.1654    0.4127 H       1  UNL1        0.0626
@<TRIPOS>BOND
     1     1     2    1
     2     2     3    1
     3     2     4    1
     4     4     5    1
     5     2     6    1
     6     6     7   am
     7     7     8    2
     8     7     9    1
     9     9    10   ar
    10    10    11   ar
    11    11    12   ar
    12    12    13   ar
    13    13    14   ar
    14    14    15   ar
    15    15    16    1
    16    16    17   ar
    17    17    18   ar
    18    18    19    1
    19    19    20    1
    20    20    21    1
    21    21    22    1
    22    21    23    1
    23    23    24    1
    24    18    25   ar
    25    25    26   ar
    26    26    27   ar
    27    27    28    1
    28    27    29   ar
    29    29    30   ar
    30    30    31   ar
    31    15    32   ar
    32    32    33   ar
    33    33     9   ar
    34    33    12   ar
    35    31    16   ar
    36    31    25   ar
    37     1    34    1
    38     1    35    1
    39     1    36    1
    40     3    37    1
    41     3    38    1
    42     3    39    1
    43     4    40    1
    44     4    41    1
    45     5    42    1
    46     6    43    1
    47    10    44    1
    48    11    45    1
    49    14    46    1
    50    19    47    1
    51    19    48    1
    52    20    49    1
    53    20    50    1
    54    21    51    1
    55    22    52    1
    56    23    53    1
    57    23    54    1
    58    24    55    1
    59    26    56    1
    60    29    57    1
    61    30    58    1
