
     RDKit          3D

 58 61  0  0  0  0  0  0  0  0999 V2000
    6.5938   -0.4531   -2.0704 C   0  0  0  0  0  0  0  0  0  0  0  0
    5.6454   -0.6847   -0.9188 C   0  0  0  0  0  0  0  0  0  0  0  0
    4.7164   -1.8094   -1.3129 C   0  0  0  0  0  0  0  0  0  0  0  0
    6.4810   -1.1766    0.2503 C   0  0  0  0  0  0  0  0  0  0  0  0
    7.4493   -0.2133    0.6088 O   0  0  0  0  0  0  0  0  0  0  0  0
    4.9527    0.5356   -0.6050 N   0  0  0  0  0  0  0  0  0  0  0  0
    3.9842    0.6454    0.4339 C   0  0  0  0  0  0  0  0  0  0  0  0
    3.7458   -0.4110    1.0946 O   0  0  0  0  0  0  0  0  0  0  0  0
    3.3167    1.9143    0.7059 C   0  0  0  0  0  0  0  0  0  0  0  0
    3.8865    3.1655    0.8721 C   0  0  0  0  0  0  0  0  0  0  0  0
    2.9312    4.0552    1.1023 N   0  0  0  0  0  0  0  0  0  0  0  0
    1.7447    3.4468    1.0963 C   0  0  0  0  0  0  0  0  0  0  0  0
    0.4736    3.8953    1.2764 N   0  0  0  0  0  0  0  0  0  0  0  0
   -0.5187    2.9975    1.2043 C   0  0  0  0  0  0  0  0  0  0  0  0
   -0.3473    1.6477    0.9596 C   0  0  0  0  0  0  0  0  0  0  0  0
   -1.4776    0.7275    0.8962 C   0  0  0  0  0  0  0  0  0  0  0  0
   -2.7772    0.9991    1.0454 N   0  0  0  0  0  0  0  0  0  0  0  0
   -3.4975   -0.1050    0.9212 N   0  0  0  0  0  0  0  0  0  0  0  0
   -4.9311   -0.2140    1.0191 C   0  0  0  0  0  0  0  0  0  0  0  0
   -5.6123   -0.0358   -0.3147 C   0  0  0  0  0  0  0  0  0  0  0  0
   -7.1240   -0.1610   -0.1314 C   0  0  0  0  0  0  0  0  0  0  0  0
   -7.4472   -1.4097    0.3824 O   0  0  0  0  0  0  0  0  0  0  0  0
   -7.8409    0.0121   -1.4523 C   0  0  0  0  0  0  0  0  0  0  0  0
   -7.5663    1.2470   -2.0322 O   0  0  0  0  0  0  0  0  0  0  0  0
   -2.6884   -1.1659    0.6813 C   0  0  0  0  0  0  0  0  0  0  0  0
   -2.9040   -2.5063    0.4767 C   0  0  0  0  0  0  0  0  0  0  0  0
   -1.8451   -3.3437    0.2521 C   0  0  0  0  0  0  0  0  0  0  0  0
   -2.1046   -4.6614    0.0562 F   0  0  0  0  0  0  0  0  0  0  0  0
   -0.5643   -2.8710    0.2272 C   0  0  0  0  0  0  0  0  0  0  0  0
   -0.3693   -1.5127    0.4365 C   0  0  0  0  0  0  0  0  0  0  0  0
   -1.3978   -0.6251    0.6666 C   0  0  0  0  0  0  0  0  0  0  0  0
    0.9208    1.2273    0.7846 N   0  0  0  0  0  0  0  0  0  0  0  0
    1.9568    2.1068    0.8502 C   0  0  0  0  0  0  0  0  0  0  0  0
    7.6503   -0.6768   -1.7940 H   0  0  0  0  0  0  0  0  0  0  0  0
    6.5612    0.6139   -2.3432 H   0  0  0  0  0  0  0  0  0  0  0  0
    6.3128   -1.0695   -2.9731 H   0  0  0  0  0  0  0  0  0  0  0  0
    5.3762   -2.6518   -1.6521 H   0  0  0  0  0  0  0  0  0  0  0  0
    4.1383   -2.2009   -0.4601 H   0  0  0  0  0  0  0  0  0  0  0  0
    4.0945   -1.5597   -2.1965 H   0  0  0  0  0  0  0  0  0  0  0  0
    7.0385   -2.0862   -0.0310 H   0  0  0  0  0  0  0  0  0  0  0  0
    5.8831   -1.3500    1.1644 H   0  0  0  0  0  0  0  0  0  0  0  0
    6.9833    0.6616    0.6905 H   0  0  0  0  0  0  0  0  0  0  0  0
    5.1534    1.4140   -1.1620 H   0  0  0  0  0  0  0  0  0  0  0  0
    4.9620    3.3265    0.8103 H   0  0  0  0  0  0  0  0  0  0  0  0
    3.0393    5.0941    1.2700 H   0  0  0  0  0  0  0  0  0  0  0  0
   -1.5281    3.3506    1.3469 H   0  0  0  0  0  0  0  0  0  0  0  0
   -5.2633   -1.1483    1.4740 H   0  0  0  0  0  0  0  0  0  0  0  0
   -5.2643    0.6211    1.6876 H   0  0  0  0  0  0  0  0  0  0  0  0
   -5.2516   -0.7447   -1.0755 H   0  0  0  0  0  0  0  0  0  0  0  0
   -5.4308    0.9854   -0.7122 H   0  0  0  0  0  0  0  0  0  0  0  0
   -7.4978    0.5909    0.5864 H   0  0  0  0  0  0  0  0  0  0  0  0
   -7.7697   -1.9698   -0.3564 H   0  0  0  0  0  0  0  0  0  0  0  0
   -7.5973   -0.8295   -2.1100 H   0  0  0  0  0  0  0  0  0  0  0  0
   -8.9311    0.0047   -1.2342 H   0  0  0  0  0  0  0  0  0  0  0  0
   -7.4582    1.9638   -1.3862 H   0  0  0  0  0  0  0  0  0  0  0  0
   -3.9210   -2.9082    0.4904 H   0  0  0  0  0  0  0  0  0  0  0  0
    0.2779   -3.5291    0.0487 H   0  0  0  0  0  0  0  0  0  0  0  0
    0.6574   -1.1654    0.4127 H   0  0  0  0  0  0  0  0  0  0  0  0
  1  2  1  0
  2  3  1  0
  2  4  1  0
  4  5  1  0
  2  6  1  0
  6  7  1  0
  7  8  2  0
  7  9  1  0
  9 10  2  0
 10 11  1  0
 11 12  1  0
 12 13  2  0
 13 14  1  0
 14 15  2  0
 15 16  1  0
 16 17  2  0
 17 18  1  0
 18 19  1  0
 19 20  1  0
 20 21  1  0
 21 22  1  0
 21 23  1  0
 23 24  1  0
 18 25  1  0
 25 26  2  0
 26 27  1  0
 27 28  1  0
 27 29  2  0
 29 30  1  0
 30 31  2  0
 15 32  1  0
 32 33  2  0
 33  9  1  0
 33 12  1  0
 31 16  1  0
 31 25  1  0
  1 34  1  0
  1 35  1  0
  1 36  1  0
  3 37  1  0
  3 38  1  0
  3 39  1  0
  4 40  1  0
  4 41  1  0
  5 42  1  0
  6 43  1  0
 10 44  1  0
 11 45  1  0
 14 46  1  0
 19 47  1  0
 19 48  1  0
 20 49  1  0
 20 50  1  0
 21 51  1  0
 22 52  1  0
 23 53  1  0
 23 54  1  0
 24 55  1  0
 26 56  1  0
 29 57  1  0
 30 58  1  0
M  END
$$$$
