@<TRIPOS>MOLECULE
*****
 32 32 0 0 0
SMALL
GASTEIGER

@<TRIPOS>ATOM
      1 C          -4.0230    1.0256   -2.4361 C.3     1  UNL1        0.0790
      2 O          -2.7239    0.7953   -1.9416 O.3     1  UNL1       -0.4915
      3 C          -2.5888    0.4759   -0.5965 C.ar    1  UNL1        0.1615
      4 C          -1.3539    0.2199    0.0370 C.ar    1  UNL1        0.1620
      5 O          -0.3820    0.3343   -0.8647 O.3     1  UNL1       -0.4856
      6 C           0.9875    0.1818   -0.8828 C.3     1  UNL1        0.1188
      7 C           1.5423   -1.1669   -0.6184 C.3     1  UNL1        0.1231
      8 O           1.2850   -1.6217    0.6429 O.3     1  UNL1       -0.3850
      9 C           2.9660   -1.4336   -0.9780 C.3     1  UNL1        0.1231
     10 O           3.9365   -0.8955   -0.2002 O.3     1  UNL1       -0.4478
     11 C           4.4044    0.3147    0.0802 C.2     1  UNL1        0.3977
     12 N           5.4723    0.5386    1.0010 N.am    1  UNL1       -0.2950
     13 O           3.9842    1.3749   -0.4092 O.2     1  UNL1       -0.2267
     14 C          -1.4687   -0.0735    1.3717 C.ar    1  UNL1       -0.0163
     15 C          -2.5993   -0.1482    2.1433 C.ar    1  UNL1       -0.0581
     16 C          -3.7849    0.1069    1.4921 C.ar    1  UNL1       -0.0581
     17 C          -3.7915    0.4190    0.1278 C.ar    1  UNL1       -0.0163
     18 H          -4.6866    0.1519   -2.3225 H       1  UNL1        0.0660
     19 H          -4.4930    1.8662   -1.8461 H       1  UNL1        0.0660
     20 H          -4.0114    1.4079   -3.4777 H       1  UNL1        0.0660
     21 H           1.3400    0.4818   -1.9125 H       1  UNL1        0.0724
     22 H           1.4619    0.9686   -0.2225 H       1  UNL1        0.0724
     23 H           0.9780   -1.9206   -1.3401 H       1  UNL1        0.0662
     24 H           1.7141   -1.0515    1.3130 H       1  UNL1        0.2101
     25 H           3.1081   -2.5632   -1.0187 H       1  UNL1        0.0725
     26 H           3.1735   -1.0977   -2.0488 H       1  UNL1        0.0725
     27 H           5.6138    1.1210    1.8553 H       1  UNL1        0.1482
     28 H           6.4643    0.1682    1.0902 H       1  UNL1        0.1482
     29 H          -0.5337   -0.2471    1.8640 H       1  UNL1        0.0655
     30 H          -2.5213   -0.3916    3.1790 H       1  UNL1        0.0619
     31 H          -4.6927    0.0593    2.0573 H       1  UNL1        0.0619
     32 H          -4.7777    0.5994   -0.2737 H       1  UNL1        0.0655
@<TRIPOS>BOND
     1     1     2    1
     2     2     3    1
     3     3     4   ar
     4     4     5    1
     5     5     6    1
     6     6     7    1
     7     7     8    1
     8     7     9    1
     9     9    10    1
    10    10    11    1
    11    11    12   am
    12    11    13    2
    13     4    14   ar
    14    14    15   ar
    15    15    16   ar
    16    16    17   ar
    17    17     3   ar
    18     1    18    1
    19     1    19    1
    20     1    20    1
    21     6    21    1
    22     6    22    1
    23     7    23    1
    24     8    24    1
    25     9    25    1
    26     9    26    1
    27    12    27    1
    28    12    28    1
    29    14    29    1
    30    15    30    1
    31    16    31    1
    32    17    32    1
