
     RDKit          3D

 32 32  0  0  0  0  0  0  0  0999 V2000
   -4.0230    1.0256   -2.4361 C   0  0  0  0  0  0  0  0  0  0  0  0
   -2.7239    0.7953   -1.9416 O   0  0  0  0  0  0  0  0  0  0  0  0
   -2.5888    0.4759   -0.5965 C   0  0  0  0  0  0  0  0  0  0  0  0
   -1.3539    0.2199    0.0370 C   0  0  0  0  0  0  0  0  0  0  0  0
   -0.3820    0.3343   -0.8647 O   0  0  0  0  0  0  0  0  0  0  0  0
    0.9875    0.1818   -0.8828 C   0  0  0  0  0  0  0  0  0  0  0  0
    1.5423   -1.1669   -0.6184 C   0  0  0  0  0  0  0  0  0  0  0  0
    1.2850   -1.6217    0.6429 O   0  0  0  0  0  0  0  0  0  0  0  0
    2.9660   -1.4336   -0.9780 C   0  0  0  0  0  0  0  0  0  0  0  0
    3.9365   -0.8955   -0.2002 O   0  0  0  0  0  0  0  0  0  0  0  0
    4.4044    0.3147    0.0802 C   0  0  0  0  0  0  0  0  0  0  0  0
    5.4723    0.5386    1.0010 N   0  0  0  0  0  0  0  0  0  0  0  0
    3.9842    1.3749   -0.4092 O   0  0  0  0  0  0  0  0  0  0  0  0
   -1.4687   -0.0735    1.3717 C   0  0  0  0  0  0  0  0  0  0  0  0
   -2.5993   -0.1482    2.1433 C   0  0  0  0  0  0  0  0  0  0  0  0
   -3.7849    0.1069    1.4921 C   0  0  0  0  0  0  0  0  0  0  0  0
   -3.7915    0.4190    0.1278 C   0  0  0  0  0  0  0  0  0  0  0  0
   -4.6866    0.1519   -2.3225 H   0  0  0  0  0  0  0  0  0  0  0  0
   -4.4930    1.8662   -1.8461 H   0  0  0  0  0  0  0  0  0  0  0  0
   -4.0114    1.4079   -3.4777 H   0  0  0  0  0  0  0  0  0  0  0  0
    1.3400    0.4818   -1.9125 H   0  0  0  0  0  0  0  0  0  0  0  0
    1.4619    0.9686   -0.2225 H   0  0  0  0  0  0  0  0  0  0  0  0
    0.9780   -1.9206   -1.3401 H   0  0  0  0  0  0  0  0  0  0  0  0
    1.7141   -1.0515    1.3130 H   0  0  0  0  0  0  0  0  0  0  0  0
    3.1081   -2.5632   -1.0187 H   0  0  0  0  0  0  0  0  0  0  0  0
    3.1735   -1.0977   -2.0488 H   0  0  0  0  0  0  0  0  0  0  0  0
    5.6138    1.1210    1.8553 H   0  0  0  0  0  0  0  0  0  0  0  0
    6.4643    0.1682    1.0902 H   0  0  0  0  0  0  0  0  0  0  0  0
   -0.5337   -0.2471    1.8640 H   0  0  0  0  0  0  0  0  0  0  0  0
   -2.5213   -0.3916    3.1790 H   0  0  0  0  0  0  0  0  0  0  0  0
   -4.6927    0.0593    2.0573 H   0  0  0  0  0  0  0  0  0  0  0  0
   -4.7777    0.5994   -0.2737 H   0  0  0  0  0  0  0  0  0  0  0  0
  1  2  1  0
  2  3  1  0
  3  4  2  0
  4  5  1  0
  5  6  1  0
  6  7  1  0
  7  8  1  0
  7  9  1  0
  9 10  1  0
 10 11  1  0
 11 12  1  0
 11 13  2  0
  4 14  1  0
 14 15  2  0
 15 16  1  0
 16 17  2  0
 17  3  1  0
  1 18  1  0
  1 19  1  0
  1 20  1  0
  6 21  1  0
  6 22  1  0
  7 23  1  0
  8 24  1  0
  9 25  1  0
  9 26  1  0
 12 27  1  0
 12 28  1  0
 14 29  1  0
 15 30  1  0
 16 31  1  0
 17 32  1  0
M  END
$$$$
