@<TRIPOS>MOLECULE
*****
 47 50 0 0 0
SMALL
GASTEIGER

@<TRIPOS>ATOM
      1 N           5.3959   -1.6439    1.5105 N.am    1  UNL1       -0.3241
      2 C           4.0543   -1.2950    1.2339 C.2     1  UNL1        0.2599
      3 O           3.1721   -1.4617    2.0990 O.2     1  UNL1       -0.2687
      4 C           3.7289   -0.7435   -0.0682 C.ar    1  UNL1        0.1280
      5 C           4.6160   -0.5077   -1.1241 C.ar    1  UNL1        0.0588
      6 N           3.9039    0.0067   -2.1359 N.ar    1  UNL1       -0.2353
      7 C           2.6050    0.0978   -1.7429 C.ar    1  UNL1        0.1381
      8 C           1.4805    0.5599   -2.4132 C.ar    1  UNL1       -0.0182
      9 C           0.2755    0.5414   -1.7752 C.ar    1  UNL1       -0.0477
     10 C           0.1273    0.0766   -0.4750 C.ar    1  UNL1        0.0173
     11 C          -1.1533    0.0678    0.1805 C.ar    1  UNL1        0.0782
     12 C          -1.8875    1.2028    0.4527 C.ar    1  UNL1        0.0967
     13 C          -1.5519    2.5869    0.1586 C.ar    1  UNL1        0.0026
     14 C          -0.4374    3.1642    0.7300 C.ar    1  UNL1       -0.0498
     15 C          -0.0855    4.4853    0.4713 C.ar    1  UNL1       -0.0258
     16 C          -0.8478    5.2744   -0.3754 C.ar    1  UNL1        0.1234
     17 F          -0.4915    6.5714   -0.6215 F       1  UNL1       -0.2055
     18 C          -1.9566    4.6983   -0.9431 C.ar    1  UNL1       -0.0258
     19 C          -2.2978    3.3910   -0.6825 C.ar    1  UNL1       -0.0498
     20 N          -3.0336    0.8108    1.0735 N.ar    1  UNL1       -0.2351
     21 C          -3.0279   -0.5106    1.1900 C.ar    1  UNL1        0.0975
     22 N          -1.8746   -0.9651    0.6422 N.ar    1  UNL1       -0.3220
     23 C          -1.4674   -2.3378    0.5606 C.3     1  UNL1        0.0820
     24 C          -1.2843   -2.7872   -0.8872 C.3     1  UNL1        0.0671
     25 O          -2.4827   -2.6509   -1.5887 O.3     1  UNL1       -0.3929
     26 C          -2.5150   -3.2584    1.1602 C.3     1  UNL1        0.0671
     27 O          -3.6973   -3.0982    0.4639 O.3     1  UNL1       -0.3929
     28 C           1.2935   -0.3712    0.1387 C.ar    1  UNL1        0.0211
     29 N           2.4928   -0.3614   -0.4743 N.ar    1  UNL1       -0.2949
     30 H           5.6050   -2.6155    1.8106 H       1  UNL1        0.1453
     31 H           6.1940   -0.9841    1.4322 H       1  UNL1        0.1453
     32 H           5.6735   -0.7319   -1.0479 H       1  UNL1        0.0853
     33 H           1.6248    0.9167   -3.4247 H       1  UNL1        0.0654
     34 H          -0.6214    0.9020   -2.2879 H       1  UNL1        0.0626
     35 H           0.1662    2.5562    1.3940 H       1  UNL1        0.0625
     36 H           0.7899    4.9346    0.9213 H       1  UNL1        0.0646
     37 H          -2.5628    5.2827   -1.6017 H       1  UNL1        0.0646
     38 H          -3.1827    2.9180   -1.1289 H       1  UNL1        0.0625
     39 H          -3.8187   -1.0859    1.6471 H       1  UNL1        0.1029
     40 H          -0.5031   -2.5283    1.0882 H       1  UNL1        0.0574
     41 H          -0.9905   -3.8704   -0.8142 H       1  UNL1        0.0578
     42 H          -0.4862   -2.2219   -1.3688 H       1  UNL1        0.0578
     43 H          -2.8362   -3.5536   -1.8134 H       1  UNL1        0.2095
     44 H          -2.6828   -3.0235    2.2454 H       1  UNL1        0.0578
     45 H          -2.1586   -4.3039    1.0715 H       1  UNL1        0.0578
     46 H          -4.4872   -3.3961    1.0086 H       1  UNL1        0.2095
     47 H           1.2229   -0.7376    1.1402 H       1  UNL1        0.0820
@<TRIPOS>BOND
     1     1     2   am
     2     2     3    2
     3     2     4    1
     4     4     5   ar
     5     5     6   ar
     6     6     7   ar
     7     7     8   ar
     8     8     9   ar
     9     9    10   ar
    10    10    11    1
    11    11    12   ar
    12    12    13    1
    13    13    14   ar
    14    14    15   ar
    15    15    16   ar
    16    16    17    1
    17    16    18   ar
    18    18    19   ar
    19    12    20   ar
    20    20    21   ar
    21    21    22   ar
    22    22    23    1
    23    23    24    1
    24    24    25    1
    25    23    26    1
    26    26    27    1
    27    10    28   ar
    28    28    29   ar
    29    29     4   ar
    30    29     7   ar
    31    22    11   ar
    32    19    13   ar
    33     1    30    1
    34     1    31    1
    35     5    32    1
    36     8    33    1
    37     9    34    1
    38    14    35    1
    39    15    36    1
    40    18    37    1
    41    19    38    1
    42    21    39    1
    43    23    40    1
    44    24    41    1
    45    24    42    1
    46    25    43    1
    47    26    44    1
    48    26    45    1
    49    27    46    1
    50    28    47    1
