@<TRIPOS>MOLECULE
*****
 56 60 0 0 0
SMALL
GASTEIGER

@<TRIPOS>ATOM
      1 C           2.1539    3.7914   -0.4386 C.3     1  UNL1        0.0790
      2 O           1.0295    3.0936    0.0361 O.3     1  UNL1       -0.4914
      3 C           1.1150    1.7457    0.3223 C.ar    1  UNL1        0.1623
      4 C           2.3094    1.0884    0.1397 C.ar    1  UNL1       -0.0038
      5 C           2.4364   -0.2518    0.4125 C.ar    1  UNL1        0.0441
      6 C           3.6111   -0.9829    0.2521 C.ar    1  UNL1        0.1340
      7 N           4.7699   -0.3344   -0.2225 N.pl3   1  UNL1       -0.2966
      8 C           6.0211   -0.9688   -0.4211 C.ar    1  UNL1        0.0695
      9 C           6.2851   -2.2972   -0.1809 C.ar    1  UNL1       -0.0183
     10 C           7.5792   -2.7721   -0.4294 C.ar    1  UNL1        0.0568
     11 CL          7.8969   -4.4630   -0.1185 Cl      1  UNL1       -0.0823
     12 C           8.5852   -1.9594   -0.9017 C.ar    1  UNL1        0.0390
     13 BR         10.3415   -2.6482   -1.2285 Br      1  UNL1       -0.0487
     14 C           8.3272   -0.6316   -1.1434 C.ar    1  UNL1       -0.0092
     15 C           7.0681   -0.1649   -0.9028 C.ar    1  UNL1        0.1456
     16 F           6.8268    1.1523   -1.1467 F       1  UNL1       -0.2035
     17 N           3.5527   -2.2659    0.5637 N.ar    1  UNL1       -0.2200
     18 C           2.5070   -2.9484    1.0133 C.ar    1  UNL1        0.1187
     19 N           1.3658   -2.2536    1.1727 N.ar    1  UNL1       -0.2352
     20 C           1.3191   -0.9343    0.8822 C.ar    1  UNL1        0.0797
     21 C           0.0981   -0.3016    1.0783 C.ar    1  UNL1        0.0098
     22 C          -0.0043    1.0354    0.7985 C.ar    1  UNL1        0.1640
     23 O          -1.1608    1.7092    0.9636 O.3     1  UNL1       -0.4878
     24 C          -2.4076    1.3495    1.3638 C.3     1  UNL1        0.0971
     25 C          -3.0746    0.3798    0.4637 C.3     1  UNL1        0.0453
     26 C          -3.2334    0.9306   -0.9618 C.3     1  UNL1        0.0566
     27 O          -4.2448    0.1999   -1.5336 O.3     1  UNL1       -0.3709
     28 C          -5.0112   -0.3645   -0.5476 C.3     1  UNL1        0.1133
     29 C          -6.4613    0.0643   -0.6082 C.3     1  UNL1        0.1100
     30 O          -7.1922   -0.7942    0.1777 O.3     1  UNL1       -0.3748
     31 C          -8.2474   -1.3925   -0.4711 C.3     1  UNL1        0.0370
     32 C          -6.4021    1.4049    0.0926 C.3     1  UNL1        0.0768
     33 O          -5.1943    1.4950    0.7338 O.3     1  UNL1       -0.3708
     34 C          -4.5871    0.2737    0.7740 C.3     1  UNL1        0.0954
     35 H           2.5267    3.4153   -1.4151 H       1  UNL1        0.0660
     36 H           2.9547    3.6819    0.3320 H       1  UNL1        0.0660
     37 H           1.9005    4.8636   -0.5019 H       1  UNL1        0.0660
     38 H           3.1873    1.6191   -0.2276 H       1  UNL1        0.0663
     39 H           4.7412    0.6930   -0.4564 H       1  UNL1        0.1537
     40 H           5.5338   -2.9528    0.1836 H       1  UNL1        0.0652
     41 H           9.1176    0.0249   -1.5188 H       1  UNL1        0.0658
     42 H           2.5040   -4.0009    1.2563 H       1  UNL1        0.1048
     43 H          -0.7037   -0.9046    1.4575 H       1  UNL1        0.0677
     44 H          -2.2951    0.8027    2.3563 H       1  UNL1        0.0701
     45 H          -3.0967    2.2152    1.5178 H       1  UNL1        0.0701
     46 H          -2.7276   -0.6430    0.4523 H       1  UNL1        0.0382
     47 H          -3.5369    1.9907   -0.8394 H       1  UNL1        0.0565
     48 H          -2.2759    0.8741   -1.5143 H       1  UNL1        0.0565
     49 H          -4.8923   -1.4475   -0.4223 H       1  UNL1        0.0649
     50 H          -6.8267    0.1515   -1.6519 H       1  UNL1        0.0646
     51 H          -8.9953   -0.6769   -0.8703 H       1  UNL1        0.0524
     52 H          -8.7056   -2.1172    0.2552 H       1  UNL1        0.0524
     53 H          -7.9337   -2.0192   -1.3365 H       1  UNL1        0.0524
     54 H          -6.3916    2.1762   -0.7312 H       1  UNL1        0.0587
     55 H          -7.2790    1.6167    0.7106 H       1  UNL1        0.0587
     56 H          -4.7837   -0.3471    1.6351 H       1  UNL1        0.0627
@<TRIPOS>BOND
     1     1     2    1
     2     2     3    1
     3     3     4   ar
     4     4     5   ar
     5     5     6   ar
     6     6     7    1
     7     7     8    1
     8     8     9   ar
     9     9    10   ar
    10    10    11    1
    11    10    12   ar
    12    12    13    1
    13    12    14   ar
    14    14    15   ar
    15    15    16    1
    16     6    17   ar
    17    17    18   ar
    18    18    19   ar
    19    19    20   ar
    20    20    21   ar
    21    21    22   ar
    22    22    23    1
    23    23    24    1
    24    24    25    1
    25    25    26    1
    26    26    27    1
    27    27    28    1
    28    28    29    1
    29    29    30    1
    30    30    31    1
    31    29    32    1
    32    32    33    1
    33    33    34    1
    34    22     3   ar
    35    34    25    1
    36    20     5   ar
    37    34    28    1
    38    15     8   ar
    39     1    35    1
    40     1    36    1
    41     1    37    1
    42     4    38    1
    43     7    39    1
    44     9    40    1
    45    14    41    1
    46    18    42    1
    47    21    43    1
    48    24    44    1
    49    24    45    1
    50    25    46    1
    51    26    47    1
    52    26    48    1
    53    28    49    1
    54    29    50    1
    55    31    51    1
    56    31    52    1
    57    31    53    1
    58    32    54    1
    59    32    55    1
    60    34    56    1
