@<TRIPOS>MOLECULE
*****
 42 45 0 0 0
SMALL
GASTEIGER

@<TRIPOS>ATOM
      1 N          -2.3904    1.3600    3.0064 N.pl3   1  UNL1       -0.3134
      2 C          -2.6060    1.1744    1.6060 C.2     1  UNL1        0.2763
      3 N          -2.8035    0.0135    1.0890 N.2     1  UNL1       -0.2225
      4 C          -3.0269   -0.2311   -0.3271 C.3     1  UNL1        0.1285
      5 C          -3.8737   -1.4877   -0.4821 C.3     1  UNL1        0.1199
      6 F          -5.1018   -1.3177    0.1634 F       1  UNL1       -0.2462
      7 C          -1.7392   -0.4471   -1.0130 C.ar    1  UNL1        0.0227
      8 C          -0.5572   -0.3766   -0.3280 C.ar    1  UNL1       -0.0320
      9 C           0.7008   -0.5609   -0.9263 C.ar    1  UNL1        0.0369
     10 N           1.8584   -0.4644   -0.1153 N.am    1  UNL1       -0.2802
     11 C           3.1982   -0.6063   -0.4748 C.2     1  UNL1        0.2666
     12 O           3.4812   -0.8524   -1.6585 O.2     1  UNL1       -0.2682
     13 C           4.3022   -0.4767    0.4913 C.ar    1  UNL1        0.1257
     14 C           5.5851   -0.6356    0.0290 C.ar    1  UNL1       -0.0301
     15 C           6.6914   -0.5317    0.8644 C.ar    1  UNL1       -0.0441
     16 C           6.4794   -0.2610    2.1930 C.ar    1  UNL1        0.0360
     17 BR          7.9745   -0.1112    3.3703 Br      1  UNL1       -0.0487
     18 C           5.1851   -0.1072    2.6262 C.ar    1  UNL1        0.0424
     19 N           4.1219   -0.2135    1.7902 N.ar    1  UNL1       -0.2493
     20 C           0.7341   -0.8245   -2.2663 C.ar    1  UNL1       -0.0023
     21 C          -0.4413   -0.9014   -2.9811 C.ar    1  UNL1        0.1605
     22 F          -0.3560   -1.1637   -4.3001 F       1  UNL1       -0.2024
     23 C          -1.6494   -0.7151   -2.3581 C.ar    1  UNL1        0.1641
     24 F          -2.7731   -0.8225   -3.1478 F       1  UNL1       -0.2021
     25 C          -3.7338    0.9141   -0.9870 C.3     1  UNL1        0.0315
     26 C          -4.7931    1.6773   -0.2890 C.3     1  UNL1       -0.0065
     27 C          -3.4046    2.2490   -0.4301 C.3     1  UNL1        0.1090
     28 O          -2.6143    2.2493    0.7184 O.2     1  UNL1       -0.4622
     29 H          -2.5947    0.6118    3.6687 H       1  UNL1        0.1466
     30 H          -2.0206    2.2731    3.3403 H       1  UNL1        0.1466
     31 H          -3.3860   -2.3525    0.0252 H       1  UNL1        0.0643
     32 H          -4.1326   -1.6930   -1.5352 H       1  UNL1        0.0643
     33 H          -0.6037   -0.1689    0.7222 H       1  UNL1        0.0640
     34 H           1.7129   -0.2523    0.9314 H       1  UNL1        0.1552
     35 H           5.8147   -0.8514   -1.0135 H       1  UNL1        0.0641
     36 H           7.7088   -0.6520    0.5270 H       1  UNL1        0.0630
     37 H           5.0419    0.1073    3.6853 H       1  UNL1        0.0841
     38 H           1.6867   -0.9748   -2.7754 H       1  UNL1        0.0666
     39 H          -3.7457    0.8774   -2.0940 H       1  UNL1        0.0365
     40 H          -5.5566    2.1369   -0.9308 H       1  UNL1        0.0306
     41 H          -5.1279    1.3016    0.6981 H       1  UNL1        0.0306
     42 H          -3.2452    3.1073   -1.1124 H       1  UNL1        0.0737
@<TRIPOS>BOND
     1     1     2    1
     2     2     3    2
     3     3     4    1
     4     4     5    1
     5     5     6    1
     6     4     7    1
     7     7     8   ar
     8     8     9   ar
     9     9    10    1
    10    10    11   am
    11    11    12    2
    12    11    13    1
    13    13    14   ar
    14    14    15   ar
    15    15    16   ar
    16    16    17    1
    17    16    18   ar
    18    18    19   ar
    19     9    20   ar
    20    20    21   ar
    21    21    22    1
    22    21    23   ar
    23    23    24    1
    24     4    25    1
    25    25    26    1
    26    26    27    1
    27    27    28    1
    28    28     2    1
    29    23     7   ar
    30    27    25    1
    31    19    13   ar
    32     1    29    1
    33     1    30    1
    34     5    31    1
    35     5    32    1
    36     8    33    1
    37    10    34    1
    38    14    35    1
    39    15    36    1
    40    18    37    1
    41    20    38    1
    42    25    39    1
    43    26    40    1
    44    26    41    1
    45    27    42    1
