
     RDKit          3D

 42 45  0  0  0  0  0  0  0  0999 V2000
   -2.3904    1.3600    3.0064 N   0  0  0  0  0  0  0  0  0  0  0  0
   -2.6060    1.1744    1.6060 C   0  0  0  0  0  0  0  0  0  0  0  0
   -2.8035    0.0135    1.0890 N   0  0  0  0  0  0  0  0  0  0  0  0
   -3.0269   -0.2311   -0.3271 C   0  0  2  0  0  0  0  0  0  0  0  0
   -3.8737   -1.4877   -0.4821 C   0  0  0  0  0  0  0  0  0  0  0  0
   -5.1018   -1.3177    0.1634 F   0  0  0  0  0  0  0  0  0  0  0  0
   -1.7392   -0.4471   -1.0130 C   0  0  0  0  0  0  0  0  0  0  0  0
   -0.5572   -0.3766   -0.3280 C   0  0  0  0  0  0  0  0  0  0  0  0
    0.7008   -0.5609   -0.9263 C   0  0  0  0  0  0  0  0  0  0  0  0
    1.8584   -0.4644   -0.1153 N   0  0  0  0  0  0  0  0  0  0  0  0
    3.1982   -0.6063   -0.4748 C   0  0  0  0  0  0  0  0  0  0  0  0
    3.4812   -0.8524   -1.6585 O   0  0  0  0  0  0  0  0  0  0  0  0
    4.3022   -0.4767    0.4913 C   0  0  0  0  0  0  0  0  0  0  0  0
    5.5851   -0.6356    0.0290 C   0  0  0  0  0  0  0  0  0  0  0  0
    6.6914   -0.5317    0.8644 C   0  0  0  0  0  0  0  0  0  0  0  0
    6.4794   -0.2610    2.1930 C   0  0  0  0  0  0  0  0  0  0  0  0
    7.9745   -0.1112    3.3703 Br  0  0  0  0  0  0  0  0  0  0  0  0
    5.1851   -0.1072    2.6262 C   0  0  0  0  0  0  0  0  0  0  0  0
    4.1219   -0.2135    1.7902 N   0  0  0  0  0  0  0  0  0  0  0  0
    0.7341   -0.8245   -2.2663 C   0  0  0  0  0  0  0  0  0  0  0  0
   -0.4413   -0.9014   -2.9811 C   0  0  0  0  0  0  0  0  0  0  0  0
   -0.3560   -1.1637   -4.3001 F   0  0  0  0  0  0  0  0  0  0  0  0
   -1.6494   -0.7151   -2.3581 C   0  0  0  0  0  0  0  0  0  0  0  0
   -2.7731   -0.8225   -3.1478 F   0  0  0  0  0  0  0  0  0  0  0  0
   -3.7338    0.9141   -0.9870 C   0  0  1  0  0  0  0  0  0  0  0  0
   -4.7931    1.6773   -0.2890 C   0  0  0  0  0  0  0  0  0  0  0  0
   -3.4046    2.2490   -0.4301 C   0  0  1  0  0  0  0  0  0  0  0  0
   -2.6143    2.2493    0.7184 O   0  0  0  0  0  0  0  0  0  0  0  0
   -2.5947    0.6118    3.6687 H   0  0  0  0  0  0  0  0  0  0  0  0
   -2.0206    2.2731    3.3403 H   0  0  0  0  0  0  0  0  0  0  0  0
   -3.3860   -2.3525    0.0252 H   0  0  0  0  0  0  0  0  0  0  0  0
   -4.1326   -1.6930   -1.5352 H   0  0  0  0  0  0  0  0  0  0  0  0
   -0.6037   -0.1689    0.7222 H   0  0  0  0  0  0  0  0  0  0  0  0
    1.7129   -0.2523    0.9314 H   0  0  0  0  0  0  0  0  0  0  0  0
    5.8147   -0.8514   -1.0135 H   0  0  0  0  0  0  0  0  0  0  0  0
    7.7088   -0.6520    0.5270 H   0  0  0  0  0  0  0  0  0  0  0  0
    5.0419    0.1073    3.6853 H   0  0  0  0  0  0  0  0  0  0  0  0
    1.6867   -0.9748   -2.7754 H   0  0  0  0  0  0  0  0  0  0  0  0
   -3.7457    0.8774   -2.0940 H   0  0  0  0  0  0  0  0  0  0  0  0
   -5.5566    2.1369   -0.9308 H   0  0  0  0  0  0  0  0  0  0  0  0
   -5.1279    1.3016    0.6981 H   0  0  0  0  0  0  0  0  0  0  0  0
   -3.2452    3.1073   -1.1124 H   0  0  0  0  0  0  0  0  0  0  0  0
  1  2  1  0
  2  3  2  0
  3  4  1  0
  4  5  1  1
  5  6  1  0
  4  7  1  0
  7  8  2  0
  8  9  1  0
  9 10  1  0
 10 11  1  0
 11 12  2  0
 11 13  1  0
 13 14  2  0
 14 15  1  0
 15 16  2  0
 16 17  1  0
 16 18  1  0
 18 19  2  0
  9 20  2  0
 20 21  1  0
 21 22  1  0
 21 23  2  0
 23 24  1  0
  4 25  1  0
 25 26  1  0
 26 27  1  0
 27 28  1  0
 28  2  1  0
 23  7  1  0
 27 25  1  0
 19 13  1  0
  1 29  1  0
  1 30  1  0
  5 31  1  0
  5 32  1  0
  8 33  1  0
 10 34  1  0
 14 35  1  0
 15 36  1  0
 18 37  1  0
 20 38  1  0
 25 39  1  6
 26 40  1  0
 26 41  1  0
 27 42  1  6
M  END
$$$$
