@<TRIPOS>MOLECULE
*****
 48 52 0 0 0
SMALL
GASTEIGER

@<TRIPOS>ATOM
      1 C          -7.6075    1.0964   -1.0019 C.3     1  UNL1       -0.0159
      2 C          -6.7978    0.7544    0.1885 C.ar    1  UNL1        0.0760
      3 N          -5.7092    0.5787    0.5213 N.ar    1  UNL1       -0.2412
      4 C          -5.1746    0.2678    1.6733 C.ar    1  UNL1        0.1154
      5 C          -3.7123    0.0811    1.8809 C.ar    1  UNL1        0.1832
      6 N          -3.0880   -0.0752    3.0553 N.ar    1  UNL1       -0.1275
      7 N          -1.7787   -0.2052    2.8196 N.ar    1  UNL1       -0.1320
      8 C          -1.5309   -0.1377    1.5249 C.ar    1  UNL1        0.1542
      9 N          -2.7631    0.0428    0.9541 N.ar    1  UNL1       -0.3066
     10 C          -2.8349    0.1392   -0.5033 C.3     1  UNL1        0.0423
     11 C          -1.9291   -0.9413   -1.0683 C.3     1  UNL1        0.0338
     12 N          -0.5586   -0.6319   -0.6686 N.am    1  UNL1       -0.2860
     13 C           0.4651   -0.7776   -1.6404 C.2     1  UNL1        0.2472
     14 O           0.1877   -1.1628   -2.8104 O.2     1  UNL1       -0.2700
     15 C           1.8549   -0.4883   -1.3118 C.ar    1  UNL1        0.0370
     16 C           2.7783   -1.5480   -1.3016 C.ar    1  UNL1       -0.0490
     17 C           4.1029   -1.2963   -1.0367 C.ar    1  UNL1       -0.0528
     18 C           4.5591   -0.0231   -0.7796 C.ar    1  UNL1       -0.0113
     19 C           5.9772    0.2067   -0.5401 C.ar    1  UNL1        0.0193
     20 C           6.6815    1.3087   -0.2583 C.ar    1  UNL1       -0.0469
     21 C           8.0034    1.2283   -0.0963 C.ar    1  UNL1       -0.0541
     22 C           8.6145    0.0139   -0.2219 C.ar    1  UNL1       -0.0237
     23 S           7.2093   -1.1015   -0.5996 S.2     1  UNL1       -0.0967
     24 C           3.6551    0.9990   -0.7895 C.ar    1  UNL1       -0.0528
     25 C           2.2996    0.7830   -1.0545 C.ar    1  UNL1       -0.0490
     26 C          -0.3098   -0.2002    0.6955 C.3     1  UNL1        0.0834
     27 C           0.7455   -1.0106    1.3969 C.3     1  UNL1       -0.0393
     28 C          -6.0713    0.1200    2.6975 C.ar    1  UNL1        0.0064
     29 S          -7.6815    0.4620    1.8501 S.2     1  UNL1       -0.0801
     30 H          -7.6088    2.2212   -1.0772 H       1  UNL1        0.0298
     31 H          -7.0352    0.6865   -1.8760 H       1  UNL1        0.0298
     32 H          -8.6372    0.6839   -0.9612 H       1  UNL1        0.0298
     33 H          -3.8752    0.0538   -0.8431 H       1  UNL1        0.0508
     34 H          -2.4901    1.1573   -0.8114 H       1  UNL1        0.0508
     35 H          -2.0197   -0.9077   -2.1681 H       1  UNL1        0.0482
     36 H          -2.2743   -1.9127   -0.6644 H       1  UNL1        0.0482
     37 H           2.3697   -2.5240   -1.5087 H       1  UNL1        0.0625
     38 H           4.8040   -2.1169   -1.0265 H       1  UNL1        0.0624
     39 H           6.1479    2.2979   -0.1616 H       1  UNL1        0.0629
     40 H           8.6453    2.1329    0.1415 H       1  UNL1        0.0623
     41 H           9.6521   -0.3252   -0.1416 H       1  UNL1        0.0693
     42 H           3.9936    1.9988   -0.5871 H       1  UNL1        0.0624
     43 H           1.6033    1.6266   -1.0634 H       1  UNL1        0.0625
     44 H           0.1317    0.8412    0.5768 H       1  UNL1        0.0579
     45 H           0.4038   -1.2123    2.4412 H       1  UNL1        0.0252
     46 H           1.7018   -0.4483    1.5136 H       1  UNL1        0.0252
     47 H           0.9003   -1.9719    0.8733 H       1  UNL1        0.0252
     48 H          -6.0000   -0.1298    3.7689 H       1  UNL1        0.0716
@<TRIPOS>BOND
     1     1     2    1
     2     2     3   ar
     3     3     4   ar
     4     4     5    1
     5     5     6   ar
     6     6     7   ar
     7     7     8   ar
     8     8     9   ar
     9     9    10    1
    10    10    11    1
    11    11    12    1
    12    12    13   am
    13    13    14    2
    14    13    15    1
    15    15    16   ar
    16    16    17   ar
    17    17    18   ar
    18    18    19    1
    19    19    20   ar
    20    20    21   ar
    21    21    22   ar
    22    22    23   ar
    23    18    24   ar
    24    24    25   ar
    25    12    26    1
    26    26    27    1
    27     4    28   ar
    28    28    29   ar
    29    29     2   ar
    30     9     5   ar
    31    25    15   ar
    32    26     8    1
    33    23    19   ar
    34     1    30    1
    35     1    31    1
    36     1    32    1
    37    10    33    1
    38    10    34    1
    39    11    35    1
    40    11    36    1
    41    16    37    1
    42    17    38    1
    43    20    39    1
    44    21    40    1
    45    22    41    1
    46    24    42    1
    47    25    43    1
    48    26    44    1
    49    27    45    1
    50    27    46    1
    51    27    47    1
    52    28    48    1
