
     RDKit          3D

 48 52  0  0  0  0  0  0  0  0999 V2000
   -7.6075    1.0964   -1.0019 C   0  0  0  0  0  0  0  0  0  0  0  0
   -6.7978    0.7544    0.1885 C   0  0  0  0  0  0  0  0  0  0  0  0
   -5.7092    0.5787    0.5213 N   0  0  0  0  0  0  0  0  0  0  0  0
   -5.1746    0.2678    1.6733 C   0  0  0  0  0  0  0  0  0  0  0  0
   -3.7123    0.0811    1.8809 C   0  0  0  0  0  0  0  0  0  0  0  0
   -3.0880   -0.0752    3.0553 N   0  0  0  0  0  0  0  0  0  0  0  0
   -1.7787   -0.2052    2.8196 N   0  0  0  0  0  0  0  0  0  0  0  0
   -1.5309   -0.1377    1.5249 C   0  0  0  0  0  0  0  0  0  0  0  0
   -2.7631    0.0428    0.9541 N   0  0  0  0  0  0  0  0  0  0  0  0
   -2.8349    0.1392   -0.5033 C   0  0  0  0  0  0  0  0  0  0  0  0
   -1.9291   -0.9413   -1.0683 C   0  0  0  0  0  0  0  0  0  0  0  0
   -0.5586   -0.6319   -0.6686 N   0  0  0  0  0  0  0  0  0  0  0  0
    0.4651   -0.7776   -1.6404 C   0  0  0  0  0  0  0  0  0  0  0  0
    0.1877   -1.1628   -2.8104 O   0  0  0  0  0  0  0  0  0  0  0  0
    1.8549   -0.4883   -1.3118 C   0  0  0  0  0  0  0  0  0  0  0  0
    2.7783   -1.5480   -1.3016 C   0  0  0  0  0  0  0  0  0  0  0  0
    4.1029   -1.2963   -1.0367 C   0  0  0  0  0  0  0  0  0  0  0  0
    4.5591   -0.0231   -0.7796 C   0  0  0  0  0  0  0  0  0  0  0  0
    5.9772    0.2067   -0.5401 C   0  0  0  0  0  0  0  0  0  0  0  0
    6.6815    1.3087   -0.2583 C   0  0  0  0  0  0  0  0  0  0  0  0
    8.0034    1.2283   -0.0963 C   0  0  0  0  0  0  0  0  0  0  0  0
    8.6145    0.0139   -0.2219 C   0  0  0  0  0  0  0  0  0  0  0  0
    7.2093   -1.1015   -0.5996 S   0  0  0  0  0  0  0  0  0  0  0  0
    3.6551    0.9990   -0.7895 C   0  0  0  0  0  0  0  0  0  0  0  0
    2.2996    0.7830   -1.0545 C   0  0  0  0  0  0  0  0  0  0  0  0
   -0.3098   -0.2002    0.6955 C   0  0  2  0  0  0  0  0  0  0  0  0
    0.7455   -1.0106    1.3969 C   0  0  0  0  0  0  0  0  0  0  0  0
   -6.0713    0.1200    2.6975 C   0  0  0  0  0  0  0  0  0  0  0  0
   -7.6815    0.4620    1.8501 S   0  0  0  0  0  0  0  0  0  0  0  0
   -7.6088    2.2212   -1.0772 H   0  0  0  0  0  0  0  0  0  0  0  0
   -7.0352    0.6865   -1.8760 H   0  0  0  0  0  0  0  0  0  0  0  0
   -8.6372    0.6839   -0.9612 H   0  0  0  0  0  0  0  0  0  0  0  0
   -3.8752    0.0538   -0.8431 H   0  0  0  0  0  0  0  0  0  0  0  0
   -2.4901    1.1573   -0.8114 H   0  0  0  0  0  0  0  0  0  0  0  0
   -2.0197   -0.9077   -2.1681 H   0  0  0  0  0  0  0  0  0  0  0  0
   -2.2743   -1.9127   -0.6644 H   0  0  0  0  0  0  0  0  0  0  0  0
    2.3697   -2.5240   -1.5087 H   0  0  0  0  0  0  0  0  0  0  0  0
    4.8040   -2.1169   -1.0265 H   0  0  0  0  0  0  0  0  0  0  0  0
    6.1479    2.2979   -0.1616 H   0  0  0  0  0  0  0  0  0  0  0  0
    8.6453    2.1329    0.1415 H   0  0  0  0  0  0  0  0  0  0  0  0
    9.6521   -0.3252   -0.1416 H   0  0  0  0  0  0  0  0  0  0  0  0
    3.9936    1.9988   -0.5871 H   0  0  0  0  0  0  0  0  0  0  0  0
    1.6033    1.6266   -1.0634 H   0  0  0  0  0  0  0  0  0  0  0  0
    0.1317    0.8412    0.5768 H   0  0  0  0  0  0  0  0  0  0  0  0
    0.4038   -1.2123    2.4412 H   0  0  0  0  0  0  0  0  0  0  0  0
    1.7018   -0.4483    1.5136 H   0  0  0  0  0  0  0  0  0  0  0  0
    0.9003   -1.9719    0.8733 H   0  0  0  0  0  0  0  0  0  0  0  0
   -6.0000   -0.1298    3.7689 H   0  0  0  0  0  0  0  0  0  0  0  0
  1  2  1  0
  2  3  2  0
  3  4  1  0
  4  5  1  0
  5  6  2  0
  6  7  1  0
  7  8  2  0
  8  9  1  0
  9 10  1  0
 10 11  1  0
 11 12  1  0
 12 13  1  0
 13 14  2  0
 13 15  1  0
 15 16  2  0
 16 17  1  0
 17 18  2  0
 18 19  1  0
 19 20  2  0
 20 21  1  0
 21 22  2  0
 22 23  1  0
 18 24  1  0
 24 25  2  0
 12 26  1  0
 26 27  1  0
  4 28  2  0
 28 29  1  0
 29  2  1  0
  9  5  1  0
 25 15  1  0
 26  8  1  0
 23 19  1  0
  1 30  1  0
  1 31  1  0
  1 32  1  0
 10 33  1  0
 10 34  1  0
 11 35  1  0
 11 36  1  0
 16 37  1  0
 17 38  1  0
 20 39  1  0
 21 40  1  0
 22 41  1  0
 24 42  1  0
 25 43  1  0
 26 44  1  6
 27 45  1  0
 27 46  1  0
 27 47  1  0
 28 48  1  0
M  END
$$$$
