
     RDKit          3D

 59 63  0  0  0  0  0  0  0  0999 V2000
    1.0416    0.1175   -0.7488 O   0  0  0  0  0  0  0  0  0  0  0  0
    1.2987    0.2035    0.4876 C   0  0  0  0  0  0  0  0  0  0  0  0
    2.6456    0.5658    0.7793 N   0  0  0  0  0  0  0  0  0  0  0  0
    3.6236    0.8064   -0.2559 C   0  0  0  0  0  0  0  0  0  0  0  0
    3.8877   -0.3834   -1.1370 C   0  0  0  0  0  0  0  0  0  0  0  0
    4.9317   -0.0565   -2.1948 C   0  0  0  0  0  0  0  0  0  0  0  0
    6.1859    0.3244   -1.5821 N   0  0  0  0  0  0  0  0  0  0  0  0
    7.2573   -0.5920   -1.2359 C   0  0  0  0  0  0  0  0  0  0  0  0
    7.8594    0.0175    0.0322 C   0  0  0  0  0  0  0  0  0  0  0  0
    7.8748    1.4878   -0.3597 C   0  0  0  0  0  0  0  0  0  0  0  0
    6.6621    1.5989   -1.1847 C   0  0  0  0  0  0  0  0  0  0  0  0
    6.0981    2.6812   -1.5113 O   0  0  0  0  0  0  0  0  0  0  0  0
    0.3464   -0.0314    1.5537 C   0  0  0  0  0  0  0  0  0  0  0  0
    0.7279   -0.0071    2.8904 C   0  0  0  0  0  0  0  0  0  0  0  0
   -0.1054   -0.2267    3.9148 N   0  0  0  0  0  0  0  0  0  0  0  0
   -1.3880   -0.4886    3.6725 C   0  0  0  0  0  0  0  0  0  0  0  0
   -1.8411   -0.5306    2.3783 C   0  0  0  0  0  0  0  0  0  0  0  0
   -0.9683   -0.3002    1.3057 C   0  0  0  0  0  0  0  0  0  0  0  0
   -1.5239   -0.3574    0.0120 N   0  0  0  0  0  0  0  0  0  0  0  0
   -2.9496   -0.6252   -0.1224 C   0  0  0  0  0  0  0  0  0  0  0  0
   -3.8423    0.3475   -0.3248 N   0  0  0  0  0  0  0  0  0  0  0  0
   -5.1592    0.0521   -0.3943 C   0  0  0  0  0  0  0  0  0  0  0  0
   -6.1566    1.0987   -0.5991 C   0  0  0  0  0  0  0  0  0  0  0  0
   -7.5083    0.8799   -0.6108 C   0  0  0  0  0  0  0  0  0  0  0  0
   -8.4020    1.9334   -0.7991 C   0  0  0  0  0  0  0  0  0  0  0  0
  -10.2862    1.5883   -0.8006 Br  0  0  0  0  0  0  0  0  0  0  0  0
   -7.9747    3.2226   -0.9802 C   0  0  0  0  0  0  0  0  0  0  0  0
   -6.6124    3.4538   -0.9709 C   0  0  0  0  0  0  0  0  0  0  0  0
   -5.7113    2.4068   -0.7829 C   0  0  0  0  0  0  0  0  0  0  0  0
   -4.3815    2.6407   -0.7791 F   0  0  0  0  0  0  0  0  0  0  0  0
   -5.5047   -1.2412   -0.2527 N   0  0  0  0  0  0  0  0  0  0  0  0
   -4.6397   -2.2452   -0.0492 C   0  0  0  0  0  0  0  0  0  0  0  0
   -4.9974   -3.5300    0.1018 N   0  0  0  0  0  0  0  0  0  0  0  0
   -4.0765   -4.4968    0.3164 C   0  0  0  0  0  0  0  0  0  0  0  0
   -2.7389   -4.1790    0.3850 C   0  0  0  0  0  0  0  0  0  0  0  0
   -2.3513   -2.9009    0.2373 N   0  0  0  0  0  0  0  0  0  0  0  0
   -3.2928   -1.9503    0.0236 C   0  0  0  0  0  0  0  0  0  0  0  0
    2.9588    0.6685    1.7632 H   0  0  0  0  0  0  0  0  0  0  0  0
    3.3032    1.6538   -0.9263 H   0  0  0  0  0  0  0  0  0  0  0  0
    4.5563    1.1565    0.2170 H   0  0  0  0  0  0  0  0  0  0  0  0
    2.9899   -0.8402   -1.5813 H   0  0  0  0  0  0  0  0  0  0  0  0
    4.3685   -1.1873   -0.5047 H   0  0  0  0  0  0  0  0  0  0  0  0
    5.1119   -0.9713   -2.7896 H   0  0  0  0  0  0  0  0  0  0  0  0
    4.6085    0.7527   -2.8584 H   0  0  0  0  0  0  0  0  0  0  0  0
    6.8610   -1.6239   -1.0289 H   0  0  0  0  0  0  0  0  0  0  0  0
    8.0070   -0.5973   -2.0551 H   0  0  0  0  0  0  0  0  0  0  0  0
    7.1477   -0.1066    0.8526 H   0  0  0  0  0  0  0  0  0  0  0  0
    8.8566   -0.3978    0.2131 H   0  0  0  0  0  0  0  0  0  0  0  0
    8.8233    1.6284   -0.9519 H   0  0  0  0  0  0  0  0  0  0  0  0
    7.8711    2.1545    0.5319 H   0  0  0  0  0  0  0  0  0  0  0  0
    1.7439    0.1943    3.1248 H   0  0  0  0  0  0  0  0  0  0  0  0
   -2.0399   -0.6655    4.5320 H   0  0  0  0  0  0  0  0  0  0  0  0
   -2.8862   -0.7489    2.2235 H   0  0  0  0  0  0  0  0  0  0  0  0
   -1.0564   -0.2320   -0.8931 H   0  0  0  0  0  0  0  0  0  0  0  0
   -7.8890   -0.1209   -0.4772 H   0  0  0  0  0  0  0  0  0  0  0  0
   -8.6839    4.0450   -1.1263 H   0  0  0  0  0  0  0  0  0  0  0  0
   -6.2598    4.4665   -1.1119 H   0  0  0  0  0  0  0  0  0  0  0  0
   -4.3872   -5.5252    0.4340 H   0  0  0  0  0  0  0  0  0  0  0  0
   -2.0342   -4.9876    0.5581 H   0  0  0  0  0  0  0  0  0  0  0  0
  1  2  2  0
  2  3  1  0
  3  4  1  0
  4  5  1  0
  5  6  1  0
  6  7  1  0
  7  8  1  0
  8  9  1  0
  9 10  1  0
 10 11  1  0
 11 12  2  0
  2 13  1  0
 13 14  2  0
 14 15  1  0
 15 16  2  0
 16 17  1  0
 17 18  2  0
 18 19  1  0
 19 20  1  0
 20 21  2  0
 21 22  1  0
 22 23  1  0
 23 24  2  0
 24 25  1  0
 25 26  1  0
 25 27  2  0
 27 28  1  0
 28 29  2  0
 29 30  1  0
 22 31  2  0
 31 32  1  0
 32 33  2  0
 33 34  1  0
 34 35  2  0
 35 36  1  0
 36 37  2  0
 11  7  1  0
 18 13  1  0
 37 20  1  0
 29 23  1  0
 37 32  1  0
  3 38  1  0
  4 39  1  0
  4 40  1  0
  5 41  1  0
  5 42  1  0
  6 43  1  0
  6 44  1  0
  8 45  1  0
  8 46  1  0
  9 47  1  0
  9 48  1  0
 10 49  1  0
 10 50  1  0
 14 51  1  0
 16 52  1  0
 17 53  1  0
 19 54  1  0
 24 55  1  0
 27 56  1  0
 28 57  1  0
 34 58  1  0
 35 59  1  0
M  END
$$$$
