@<TRIPOS>MOLECULE
*****
 59 63 0 0 0
SMALL
GASTEIGER

@<TRIPOS>ATOM
      1 O           1.0416    0.1175   -0.7488 O.2     1  UNL1       -0.2701
      2 C           1.2987    0.2035    0.4876 C.2     1  UNL1        0.2473
      3 N           2.6456    0.5658    0.7793 N.am    1  UNL1       -0.3112
      4 C           3.6236    0.8064   -0.2559 C.3     1  UNL1        0.0133
      5 C           3.8877   -0.3834   -1.1370 C.3     1  UNL1       -0.0215
      6 C           4.9317   -0.0565   -2.1948 C.3     1  UNL1        0.0161
      7 N           6.1859    0.3244   -1.5821 N.am    1  UNL1       -0.3014
      8 C           7.2573   -0.5920   -1.2359 C.3     1  UNL1        0.0151
      9 C           7.8594    0.0175    0.0322 C.3     1  UNL1       -0.0289
     10 C           7.8748    1.4878   -0.3597 C.3     1  UNL1        0.0256
     11 C           6.6621    1.5989   -1.1847 C.2     1  UNL1        0.2156
     12 O           6.0981    2.6812   -1.5113 O.2     1  UNL1       -0.2756
     13 C           0.3464   -0.0314    1.5537 C.ar    1  UNL1        0.0758
     14 C           0.7279   -0.0071    2.8904 C.ar    1  UNL1        0.0415
     15 N          -0.1054   -0.2267    3.9148 N.ar    1  UNL1       -0.2624
     16 C          -1.3880   -0.4886    3.6725 C.ar    1  UNL1        0.0293
     17 C          -1.8411   -0.5306    2.3783 C.ar    1  UNL1       -0.0216
     18 C          -0.9683   -0.3002    1.3057 C.ar    1  UNL1        0.0476
     19 N          -1.5239   -0.3574    0.0120 N.pl3   1  UNL1       -0.2969
     20 C          -2.9496   -0.6252   -0.1224 C.ar    1  UNL1        0.1546
     21 N          -3.8423    0.3475   -0.3248 N.ar    1  UNL1       -0.2101
     22 C          -5.1592    0.0521   -0.3943 C.ar    1  UNL1        0.1670
     23 C          -6.1566    1.0987   -0.5991 C.ar    1  UNL1        0.0554
     24 C          -7.5083    0.8799   -0.6108 C.ar    1  UNL1       -0.0343
     25 C          -8.4020    1.9334   -0.7991 C.ar    1  UNL1        0.0187
     26 BR        -10.2862    1.5883   -0.8006 Br      1  UNL1       -0.0503
     27 C          -7.9747    3.2226   -0.9802 C.ar    1  UNL1       -0.0450
     28 C          -6.6124    3.4538   -0.9709 C.ar    1  UNL1       -0.0247
     29 C          -5.7113    2.4068   -0.7829 C.ar    1  UNL1        0.1341
     30 F          -4.3815    2.6407   -0.7791 F       1  UNL1       -0.2047
     31 N          -5.5047   -1.2412   -0.2527 N.ar    1  UNL1       -0.2061
     32 C          -4.6397   -2.2452   -0.0492 C.ar    1  UNL1        0.1838
     33 N          -4.9974   -3.5300    0.1018 N.ar    1  UNL1       -0.2328
     34 C          -4.0765   -4.4968    0.3164 C.ar    1  UNL1        0.0481
     35 C          -2.7389   -4.1790    0.3850 C.ar    1  UNL1        0.0466
     36 N          -2.3513   -2.9009    0.2373 N.ar    1  UNL1       -0.2469
     37 C          -3.2928   -1.9503    0.0236 C.ar    1  UNL1        0.1478
     38 H           2.9588    0.6685    1.7632 H       1  UNL1        0.1490
     39 H           3.3032    1.6538   -0.9263 H       1  UNL1        0.0462
     40 H           4.5563    1.1565    0.2170 H       1  UNL1        0.0462
     41 H           2.9899   -0.8402   -1.5813 H       1  UNL1        0.0295
     42 H           4.3685   -1.1873   -0.5047 H       1  UNL1        0.0295
     43 H           5.1119   -0.9713   -2.7896 H       1  UNL1        0.0465
     44 H           4.6085    0.7527   -2.8584 H       1  UNL1        0.0465
     45 H           6.8610   -1.6239   -1.0289 H       1  UNL1        0.0465
     46 H           8.0070   -0.5973   -2.0551 H       1  UNL1        0.0465
     47 H           7.1477   -0.1066    0.8526 H       1  UNL1        0.0285
     48 H           8.8566   -0.3978    0.2131 H       1  UNL1        0.0285
     49 H           8.8233    1.6284   -0.9519 H       1  UNL1        0.0359
     50 H           7.8711    2.1545    0.5319 H       1  UNL1        0.0359
     51 H           1.7439    0.1943    3.1248 H       1  UNL1        0.0838
     52 H          -2.0399   -0.6655    4.5320 H       1  UNL1        0.0830
     53 H          -2.8862   -0.7489    2.2235 H       1  UNL1        0.0651
     54 H          -1.0564   -0.2320   -0.8931 H       1  UNL1        0.1536
     55 H          -7.8890   -0.1209   -0.4772 H       1  UNL1        0.0636
     56 H          -8.6839    4.0450   -1.1263 H       1  UNL1        0.0629
     57 H          -6.2598    4.4665   -1.1119 H       1  UNL1        0.0647
     58 H          -4.3872   -5.5252    0.4340 H       1  UNL1        0.0846
     59 H          -2.0342   -4.9876    0.5581 H       1  UNL1        0.0845
@<TRIPOS>BOND
     1     1     2    2
     2     2     3   am
     3     3     4    1
     4     4     5    1
     5     5     6    1
     6     6     7    1
     7     7     8    1
     8     8     9    1
     9     9    10    1
    10    10    11    1
    11    11    12    2
    12     2    13    1
    13    13    14   ar
    14    14    15   ar
    15    15    16   ar
    16    16    17   ar
    17    17    18   ar
    18    18    19    1
    19    19    20    1
    20    20    21   ar
    21    21    22   ar
    22    22    23    1
    23    23    24   ar
    24    24    25   ar
    25    25    26    1
    26    25    27   ar
    27    27    28   ar
    28    28    29   ar
    29    29    30    1
    30    22    31   ar
    31    31    32   ar
    32    32    33   ar
    33    33    34   ar
    34    34    35   ar
    35    35    36   ar
    36    36    37   ar
    37    11     7   am
    38    18    13   ar
    39    37    20   ar
    40    29    23   ar
    41    37    32   ar
    42     3    38    1
    43     4    39    1
    44     4    40    1
    45     5    41    1
    46     5    42    1
    47     6    43    1
    48     6    44    1
    49     8    45    1
    50     8    46    1
    51     9    47    1
    52     9    48    1
    53    10    49    1
    54    10    50    1
    55    14    51    1
    56    16    52    1
    57    17    53    1
    58    19    54    1
    59    24    55    1
    60    27    56    1
    61    28    57    1
    62    34    58    1
    63    35    59    1
