@<TRIPOS>MOLECULE
*****
 38 40 0 0 0
SMALL
GASTEIGER

@<TRIPOS>ATOM
      1 N          -5.1776    1.6236    0.4863 N.pl3   1  UNL1       -0.3289
      2 C          -4.6244    0.3420    0.2421 C.ar    1  UNL1        0.1950
      3 N          -3.2704    0.2040    0.1584 N.ar    1  UNL1       -0.1963
      4 C          -2.6623   -0.9664   -0.0692 C.ar    1  UNL1        0.1712
      5 C          -3.4323   -2.0917   -0.2280 C.ar    1  UNL1        0.1721
      6 N          -2.5593   -3.0991   -0.4394 N.ar    1  UNL1       -0.2286
      7 C          -1.2995   -2.5859   -0.4072 C.ar    1  UNL1        0.1005
      8 N          -1.3360   -1.2659   -0.1793 N.ar    1  UNL1       -0.2854
      9 C          -0.2780   -0.3152   -0.0633 C.3     1  UNL1        0.1667
     10 O           0.7810   -0.5194   -0.9473 O.3     1  UNL1       -0.3456
     11 C           1.6500    0.5053   -0.5312 C.3     1  UNL1        0.1134
     12 C           3.0694    0.2812   -1.0210 C.3     1  UNL1        0.0878
     13 O           3.8005    1.3837   -0.5229 O.3     1  UNL1       -0.2841
     14 P           5.4176    1.2777   -0.9889 P.3     1  UNL1        0.4724
     15 O           6.3156    2.2250    0.1110 O.3     1  UNL1       -0.3026
     16 O           5.8827   -0.3473   -0.8931 O.3     1  UNL1       -0.3026
     17 O           5.6156    1.7922   -2.3903 O.2     1  UNL1       -0.2275
     18 C           1.6645    0.4671    0.9645 C.3     1  UNL1        0.1135
     19 O           1.4043    1.7440    1.4603 O.3     1  UNL1       -0.3864
     20 C           0.4427   -0.3860    1.2683 C.3     1  UNL1        0.1285
     21 O          -0.3238    0.1658    2.2944 O.3     1  UNL1       -0.3847
     22 C          -4.8233   -1.9822   -0.1475 C.ar    1  UNL1        0.2803
     23 O          -5.5246   -3.0293   -0.2960 O.2     1  UNL1       -0.2654
     24 N          -5.3696   -0.7670    0.0850 N.ar    1  UNL1       -0.2934
     25 H          -4.8375    2.2080    1.2888 H       1  UNL1        0.1451
     26 H          -5.9441    1.9998   -0.1469 H       1  UNL1        0.1451
     27 H          -0.3836   -3.1662   -0.5473 H       1  UNL1        0.1030
     28 H          -0.6698    0.7184   -0.1718 H       1  UNL1        0.0866
     29 H           1.2651    1.4594   -0.9435 H       1  UNL1        0.0647
     30 H           3.5016   -0.6246   -0.5489 H       1  UNL1        0.0592
     31 H           3.1294    0.2128   -2.1065 H       1  UNL1        0.0592
     32 H           5.9633    2.0713    1.0329 H       1  UNL1        0.2220
     33 H           5.6465   -0.6632    0.0245 H       1  UNL1        0.2220
     34 H           2.5835    0.0288    1.4002 H       1  UNL1        0.0647
     35 H           0.9961    2.3106    0.7520 H       1  UNL1        0.2100
     36 H           0.7066   -1.4275    1.5450 H       1  UNL1        0.0665
     37 H          -0.8989    0.9057    1.9906 H       1  UNL1        0.2101
     38 H          -6.4212   -0.6893    0.1449 H       1  UNL1        0.1716
@<TRIPOS>BOND
     1     1     2    1
     2     2     3   ar
     3     3     4   ar
     4     4     5   ar
     5     5     6   ar
     6     6     7   ar
     7     7     8   ar
     8     8     9    1
     9     9    10    1
    10    10    11    1
    11    11    12    1
    12    12    13    1
    13    13    14    1
    14    14    15    1
    15    14    16    1
    16    14    17    2
    17    11    18    1
    18    18    19    1
    19    18    20    1
    20    20    21    1
    21     5    22   ar
    22    22    23    2
    23    22    24   ar
    24    24     2   ar
    25     8     4   ar
    26    20     9    1
    27     1    25    1
    28     1    26    1
    29     7    27    1
    30     9    28    1
    31    11    29    1
    32    12    30    1
    33    12    31    1
    34    15    32    1
    35    16    33    1
    36    18    34    1
    37    19    35    1
    38    20    36    1
    39    21    37    1
    40    24    38    1
