@<TRIPOS>MOLECULE
*****
 55 58 0 0 0
SMALL
GASTEIGER

@<TRIPOS>ATOM
      1 N          -2.8845   -0.5188    0.5451 N.3     1  UNL1       -0.3265
      2 C          -2.8044    0.5735   -0.4253 C.3     1  UNL1        0.0172
      3 C          -2.0373   -0.0454   -1.6107 C.3     1  UNL1        0.0396
      4 C          -0.7186   -0.4470   -1.0462 C.2     1  UNL1        0.2177
      5 O          -0.0501    0.4821   -0.4967 O.2     1  UNL1       -0.2755
      6 N          -0.2304   -1.7790   -1.1109 N.am    1  UNL1       -0.2897
      7 C          -0.8874   -2.9253   -1.6829 C.3     1  UNL1        0.0155
      8 C           0.2377   -3.6313   -2.4033 C.3     1  UNL1       -0.0350
      9 C           1.3822   -3.4533   -1.4197 C.3     1  UNL1       -0.0241
     10 C           1.0304   -2.2290   -0.6022 C.3     1  UNL1        0.1048
     11 C           2.0954   -1.2190   -0.7081 C.ar    1  UNL1        0.2492
     12 N           2.9533   -0.9078    0.2699 N.ar    1  UNL1       -0.1767
     13 C           3.7993    0.0511   -0.1452 C.ar    1  UNL1        0.2582
     14 N           4.8698    0.7067    0.5167 N.pl3   1  UNL1       -0.2928
     15 C           5.6863    1.7141   -0.1326 C.3     1  UNL1        0.0385
     16 C           7.0642    1.6144    0.5289 C.3     1  UNL1        0.0635
     17 O           7.0222    1.9596    1.8647 O.3     1  UNL1       -0.3767
     18 C           5.8397    1.6349    2.4897 C.3     1  UNL1        0.0635
     19 C           5.2023    0.3952    1.8978 C.3     1  UNL1        0.0385
     20 N           3.4177    0.3030   -1.4079 N.ar    1  UNL1       -0.0400
     21 O           2.4092   -0.4598   -1.7179 O.2     1  UNL1       -0.3344
     22 C          -4.2015    0.8976   -0.9476 C.3     1  UNL1       -0.0092
     23 C          -5.1004    1.2944    0.1554 C.ar    1  UNL1       -0.0078
     24 C          -6.0597    0.3808    0.6034 C.ar    1  UNL1       -0.0176
     25 C          -6.8957    0.7399    1.6348 C.ar    1  UNL1        0.1588
     26 F          -7.8114   -0.1538    2.0528 F       1  UNL1       -0.2025
     27 C          -6.7692    1.9878    2.2013 C.ar    1  UNL1        0.1611
     28 F          -7.6143    2.2919    3.2154 F       1  UNL1       -0.2024
     29 C          -5.8135    2.9053    1.7584 C.ar    1  UNL1        0.0119
     30 C          -4.9756    2.5394    0.7209 C.ar    1  UNL1        0.1295
     31 F          -4.0340    3.4115    0.2687 F       1  UNL1       -0.2051
     32 H          -3.8118   -0.9669    0.4874 H       1  UNL1        0.1185
     33 H          -2.6168   -0.1770    1.4868 H       1  UNL1        0.1185
     34 H          -2.2827    1.4476   -0.0514 H       1  UNL1        0.0466
     35 H          -2.6363   -0.8788   -1.9701 H       1  UNL1        0.0374
     36 H          -1.9363    0.7437   -2.3898 H       1  UNL1        0.0374
     37 H          -1.2222   -3.6020   -0.8560 H       1  UNL1        0.0465
     38 H          -1.7308   -2.6639   -2.3521 H       1  UNL1        0.0465
     39 H           0.5184   -3.0993   -3.3335 H       1  UNL1        0.0281
     40 H           0.0263   -4.7065   -2.5802 H       1  UNL1        0.0281
     41 H           1.4682   -4.3289   -0.7369 H       1  UNL1        0.0288
     42 H           2.3512   -3.3100   -1.9424 H       1  UNL1        0.0288
     43 H           0.8500   -2.5309    0.4712 H       1  UNL1        0.0599
     44 H           5.3139    2.7493    0.0953 H       1  UNL1        0.0487
     45 H           5.7990    1.5639   -1.2063 H       1  UNL1        0.0487
     46 H           7.4476    0.5605    0.4308 H       1  UNL1        0.0575
     47 H           7.7646    2.3210    0.0204 H       1  UNL1        0.0575
     48 H           5.9680    1.4568    3.5874 H       1  UNL1        0.0575
     49 H           5.1191    2.4848    2.3920 H       1  UNL1        0.0575
     50 H           4.2537    0.1978    2.4360 H       1  UNL1        0.0487
     51 H           5.8564   -0.4743    1.9499 H       1  UNL1        0.0487
     52 H          -4.6119    0.0528   -1.5247 H       1  UNL1        0.0329
     53 H          -4.1384    1.7683   -1.6358 H       1  UNL1        0.0329
     54 H          -6.1507   -0.5922    0.1515 H       1  UNL1        0.0651
     55 H          -5.7202    3.8699    2.2041 H       1  UNL1        0.0676
@<TRIPOS>BOND
     1     1     2    1
     2     2     3    1
     3     3     4    1
     4     4     5    2
     5     4     6   am
     6     6     7    1
     7     7     8    1
     8     8     9    1
     9     9    10    1
    10    10    11    1
    11    11    12   ar
    12    12    13   ar
    13    13    14    1
    14    14    15    1
    15    15    16    1
    16    16    17    1
    17    17    18    1
    18    18    19    1
    19    13    20   ar
    20    20    21   ar
    21     2    22    1
    22    22    23    1
    23    23    24   ar
    24    24    25   ar
    25    25    26    1
    26    25    27   ar
    27    27    28    1
    28    27    29   ar
    29    29    30   ar
    30    30    31    1
    31    10     6    1
    32    21    11   ar
    33    30    23   ar
    34    19    14    1
    35     1    32    1
    36     1    33    1
    37     2    34    1
    38     3    35    1
    39     3    36    1
    40     7    37    1
    41     7    38    1
    42     8    39    1
    43     8    40    1
    44     9    41    1
    45     9    42    1
    46    10    43    1
    47    15    44    1
    48    15    45    1
    49    16    46    1
    50    16    47    1
    51    18    48    1
    52    18    49    1
    53    19    50    1
    54    19    51    1
    55    22    52    1
    56    22    53    1
    57    24    54    1
    58    29    55    1
