
     RDKit          3D

125131  0  0  0  0  0  0  0  0999 V2000
    3.4619   -0.0468    0.9421 C   0  0  0  0  0  0  0  0  0  0  0  0
    2.7810   -1.0850    0.4756 C   0  0  0  0  0  0  0  0  0  0  0  0
    1.3653   -1.2069    0.0267 C   0  0  1  0  0  0  0  0  0  0  0  0
    0.6232   -2.2316    0.8963 C   0  0  0  0  0  0  0  0  0  0  0  0
   -0.5694   -1.3833    1.3567 C   0  0  0  0  0  0  0  0  0  0  0  0
   -0.6510   -0.4398    0.1525 C   0  0  2  0  0  0  0  0  0  0  0  0
   -1.4762    0.7840    0.4322 C   0  0  0  0  0  0  0  0  0  0  0  0
   -2.7738    0.8338   -0.3398 C   0  0  0  0  0  0  0  0  0  0  0  0
   -3.2211   -0.5816   -0.5165 C   0  0  1  0  0  0  0  0  0  0  0  0
   -4.4303   -0.5751   -1.2140 O   0  0  0  0  0  0  0  0  0  0  0  0
   -5.0270   -1.8282   -1.2129 C   0  0  1  0  0  0  0  0  0  0  0  0
   -4.0278   -2.9130   -1.0020 C   0  0  0  0  0  0  0  0  0  0  0  0
   -4.4503   -4.0596   -0.4891 C   0  0  0  0  0  0  0  0  0  0  0  0
   -2.5948   -2.7901   -1.3243 C   0  0  1  0  0  0  0  0  0  0  0  0
   -2.2825   -3.3865   -2.5571 O   0  0  0  0  0  0  0  0  0  0  0  0
   -2.2214   -1.3292   -1.3152 C   0  0  2  0  0  0  0  0  0  0  0  0
   -0.9098   -1.0649   -1.0235 O   0  0  0  0  0  0  0  0  0  0  0  0
   -6.0915   -1.9476   -0.1762 C   0  0  1  0  0  0  0  0  0  0  0  0
   -5.5831   -1.7346    1.1231 O   0  0  0  0  0  0  0  0  0  0  0  0
   -7.3513   -1.2158   -0.4187 C   0  0  0  0  0  0  0  0  0  0  0  0
   -7.2146    0.2814   -0.5418 C   0  0  2  0  0  0  0  0  0  0  0  0
   -6.6450    0.8019    0.7491 C   0  0  0  0  0  0  0  0  0  0  0  0
   -8.5850    0.9026   -0.7238 C   0  0  1  0  0  0  0  0  0  0  0  0
   -9.3257    0.5746    0.3903 O   0  0  0  0  0  0  0  0  0  0  0  0
  -10.3316    1.4630    0.6925 C   0  0  2  0  0  0  0  0  0  0  0  0
  -11.0537    0.9259    1.9177 C   0  0  0  0  0  0  0  0  0  0  0  0
  -11.5444   -0.4563    1.6266 C   0  0  0  0  0  0  0  0  0  0  0  0
  -11.6743   -0.6659    0.1409 C   0  0  0  0  0  0  0  0  0  0  0  0
  -11.9808    0.5775   -0.6351 C   0  0  0  0  0  0  0  0  0  0  0  0
  -11.2307    1.6796   -0.3159 O   0  0  0  0  0  0  0  0  0  0  0  0
   -9.6763    2.7471    1.1236 C   0  0  0  0  0  0  0  0  0  0  0  0
   -8.9590    3.3066   -0.0521 C   0  0  0  0  0  0  0  0  0  0  0  0
   -8.5817    2.3190   -1.1215 C   0  0  1  0  0  0  0  0  0  0  0  0
   -7.2970    2.8109   -1.7584 C   0  0  0  0  0  0  0  0  0  0  0  0
    0.6763   -0.0129    0.1327 O   0  0  0  0  0  0  0  0  0  0  0  0
    4.8882   -0.0680    1.3594 C   0  0  1  0  0  0  0  0  0  0  0  0
    5.4583   -1.4262    1.5673 C   0  0  0  0  0  0  0  0  0  0  0  0
    5.7631    0.8819    0.5653 C   0  0  2  0  0  0  0  0  0  0  0  0
    5.7929    0.6050   -0.9071 C   0  0  0  0  0  0  0  0  0  0  0  0
    6.8251   -0.3676   -1.2826 C   0  0  0  0  0  0  0  0  0  0  0  0
    6.7781   -1.3765   -2.3815 C   0  0  0  0  0  0  0  0  0  0  0  0
    7.8976   -0.2715   -0.5053 C   0  0  0  0  0  0  0  0  0  0  0  0
    8.1175    0.6712    0.6256 C   0  0  2  0  0  0  0  0  0  0  0  0
    8.8055    1.7288    0.1680 O   0  0  0  0  0  0  0  0  0  0  0  0
   10.1834    1.8080    0.2735 C   0  0  2  0  0  0  0  0  0  0  0  0
   10.8973    1.4399   -0.9634 C   0  0  0  0  0  0  0  0  0  0  0  0
   12.3737    1.4986   -1.0558 C   0  0  1  0  0  0  0  0  0  0  0  0
   12.7525    1.0763   -2.5228 C   0  0  0  0  0  0  0  0  0  0  0  0
   12.7929    2.8501   -1.0291 O   0  0  0  0  0  0  0  0  0  0  0  0
   13.1738    0.6400   -0.1635 C   0  0  0  0  0  0  0  0  0  0  0  0
   14.2258    1.2792    0.5289 O   0  0  0  0  0  0  0  0  0  0  0  0
   13.1320   -0.6048    0.1371 O   0  0  0  0  0  0  0  0  0  0  0  0
   10.7128    1.2178    1.5230 C   0  0  0  0  0  0  0  0  0  0  0  0
   10.2441   -0.2165    1.6009 C   0  0  0  0  0  0  0  0  0  0  0  0
    8.7365   -0.1283    1.7562 C   0  0  1  0  0  0  0  0  0  0  0  0
    8.4320    0.4712    2.9531 O   0  0  0  0  0  0  0  0  0  0  0  0
    6.9393    1.1680    1.1632 O   0  0  0  0  0  0  0  0  0  0  0  0
    2.8547    0.8470    0.9908 H   0  0  0  0  0  0  0  0  0  0  0  0
    3.3051   -2.0455    0.3831 H   0  0  0  0  0  0  0  0  0  0  0  0
    1.3637   -1.5270   -1.0138 H   0  0  0  0  0  0  0  0  0  0  0  0
    0.2879   -3.0533    0.2503 H   0  0  0  0  0  0  0  0  0  0  0  0
    1.2499   -2.5471    1.7337 H   0  0  0  0  0  0  0  0  0  0  0  0
   -1.4596   -1.9853    1.5073 H   0  0  0  0  0  0  0  0  0  0  0  0
   -0.2195   -0.8233    2.2242 H   0  0  0  0  0  0  0  0  0  0  0  0
   -1.7643    0.7475    1.5122 H   0  0  0  0  0  0  0  0  0  0  0  0
   -0.9277    1.7393    0.2982 H   0  0  0  0  0  0  0  0  0  0  0  0
   -2.5359    1.2535   -1.3379 H   0  0  0  0  0  0  0  0  0  0  0  0
   -3.4886    1.4572    0.2326 H   0  0  0  0  0  0  0  0  0  0  0  0
   -3.3943   -1.0234    0.5012 H   0  0  0  0  0  0  0  0  0  0  0  0
   -5.4768   -1.9870   -2.2102 H   0  0  0  0  0  0  0  0  0  0  0  0
   -5.1183   -4.7785   -0.0884 H   0  0  0  0  0  0  0  0  0  0  0  0
   -3.8148   -4.9105   -0.2928 H   0  0  0  0  0  0  0  0  0  0  0  0
   -2.0252   -3.3769   -0.5758 H   0  0  0  0  0  0  0  0  0  0  0  0
   -1.3971   -3.8707   -2.5153 H   0  0  0  0  0  0  0  0  0  0  0  0
   -2.3563   -0.9928   -2.3868 H   0  0  0  0  0  0  0  0  0  0  0  0
   -6.3718   -3.0472   -0.1558 H   0  0  0  0  0  0  0  0  0  0  0  0
   -5.1905   -2.5313    1.5151 H   0  0  0  0  0  0  0  0  0  0  0  0
   -8.0786   -1.5104    0.3629 H   0  0  0  0  0  0  0  0  0  0  0  0
   -7.7706   -1.5955   -1.3932 H   0  0  0  0  0  0  0  0  0  0  0  0
   -6.5527    0.4609   -1.3993 H   0  0  0  0  0  0  0  0  0  0  0  0
   -7.2163    0.2626    1.5627 H   0  0  0  0  0  0  0  0  0  0  0  0
   -6.8289    1.8652    0.9442 H   0  0  0  0  0  0  0  0  0  0  0  0
   -5.6017    0.5859    0.9398 H   0  0  0  0  0  0  0  0  0  0  0  0
   -9.0591    0.2868   -1.5488 H   0  0  0  0  0  0  0  0  0  0  0  0
  -11.8833    1.6291    2.1919 H   0  0  0  0  0  0  0  0  0  0  0  0
  -10.3478    0.9821    2.7745 H   0  0  0  0  0  0  0  0  0  0  0  0
  -12.4706   -0.6757    2.1855 H   0  0  0  0  0  0  0  0  0  0  0  0
  -10.7770   -1.1786    1.9901 H   0  0  0  0  0  0  0  0  0  0  0  0
  -10.8118   -1.2536   -0.2639 H   0  0  0  0  0  0  0  0  0  0  0  0
  -12.5628   -1.3491    0.0169 H   0  0  0  0  0  0  0  0  0  0  0  0
  -13.0737    0.7898   -0.5183 H   0  0  0  0  0  0  0  0  0  0  0  0
  -11.7932    0.3326   -1.7149 H   0  0  0  0  0  0  0  0  0  0  0  0
   -8.9177    2.4791    1.9064 H   0  0  0  0  0  0  0  0  0  0  0  0
  -10.4079    3.4850    1.5152 H   0  0  0  0  0  0  0  0  0  0  0  0
   -9.5784    4.1566   -0.4525 H   0  0  0  0  0  0  0  0  0  0  0  0
   -8.0439    3.8444    0.3411 H   0  0  0  0  0  0  0  0  0  0  0  0
   -9.3647    2.4852   -1.9280 H   0  0  0  0  0  0  0  0  0  0  0  0
   -6.5271    3.1266   -1.0553 H   0  0  0  0  0  0  0  0  0  0  0  0
   -6.9291    2.1090   -2.5377 H   0  0  0  0  0  0  0  0  0  0  0  0
   -7.5685    3.7525   -2.3240 H   0  0  0  0  0  0  0  0  0  0  0  0
    4.8607    0.4043    2.3953 H   0  0  0  0  0  0  0  0  0  0  0  0
    4.5991   -2.0617    1.9417 H   0  0  0  0  0  0  0  0  0  0  0  0
    5.8461   -1.9393    0.6889 H   0  0  0  0  0  0  0  0  0  0  0  0
    6.1533   -1.4548    2.4615 H   0  0  0  0  0  0  0  0  0  0  0  0
    5.1754    1.8586    0.6267 H   0  0  0  0  0  0  0  0  0  0  0  0
    6.0311    1.5555   -1.4476 H   0  0  0  0  0  0  0  0  0  0  0  0
    4.7738    0.3290   -1.2367 H   0  0  0  0  0  0  0  0  0  0  0  0
    7.7303   -1.3666   -2.9727 H   0  0  0  0  0  0  0  0  0  0  0  0
    6.6267   -2.3812   -1.9731 H   0  0  0  0  0  0  0  0  0  0  0  0
    5.9344   -1.0707   -3.0516 H   0  0  0  0  0  0  0  0  0  0  0  0
    8.7378   -0.9676   -0.7018 H   0  0  0  0  0  0  0  0  0  0  0  0
   10.3594    2.9342    0.3914 H   0  0  0  0  0  0  0  0  0  0  0  0
   10.6255    0.3684   -1.2394 H   0  0  0  0  0  0  0  0  0  0  0  0
   10.5100    2.0157   -1.8617 H   0  0  0  0  0  0  0  0  0  0  0  0
   12.6294   -0.0259   -2.5073 H   0  0  0  0  0  0  0  0  0  0  0  0
   12.0254    1.4917   -3.2190 H   0  0  0  0  0  0  0  0  0  0  0  0
   13.8029    1.3022   -2.6961 H   0  0  0  0  0  0  0  0  0  0  0  0
   12.0873    3.3132   -1.5850 H   0  0  0  0  0  0  0  0  0  0  0  0
   14.5267    0.9071    1.4038 H   0  0  0  0  0  0  0  0  0  0  0  0
   11.7759    1.2633    1.6169 H   0  0  0  0  0  0  0  0  0  0  0  0
   10.2418    1.7339    2.4133 H   0  0  0  0  0  0  0  0  0  0  0  0
   10.6372   -0.6435    2.5427 H   0  0  0  0  0  0  0  0  0  0  0  0
   10.5415   -0.8561    0.7758 H   0  0  0  0  0  0  0  0  0  0  0  0
    8.3873   -1.1880    1.6652 H   0  0  0  0  0  0  0  0  0  0  0  0
    7.9567   -0.0670    3.6050 H   0  0  0  0  0  0  0  0  0  0  0  0
  1  2  2  0
  2  3  1  0
  3  4  1  0
  4  5  1  0
  5  6  1  0
  6  7  1  0
  7  8  1  0
  8  9  1  0
  9 10  1  0
 10 11  1  0
 11 12  1  0
 12 13  2  0
 12 14  1  0
 14 15  1  0
 14 16  1  0
 16 17  1  0
 11 18  1  0
 18 19  1  0
 18 20  1  0
 20 21  1  0
 21 22  1  0
 21 23  1  0
 23 24  1  0
 25 24  1  6
 25 26  1  0
 26 27  1  0
 27 28  1  0
 28 29  1  0
 29 30  1  0
 25 31  1  0
 31 32  1  0
 32 33  1  0
 33 34  1  0
  6 35  1  6
  1 36  1  0
 36 37  1  0
 36 38  1  0
 38 39  1  0
 39 40  1  0
 40 41  1  0
 40 42  2  0
 42 43  1  0
 43 44  1  6
 44 45  1  0
 45 46  1  0
 46 47  1  0
 47 48  1  0
 47 49  1  6
 47 50  1  0
 50 51  1  0
 50 52  2  0
 45 53  1  0
 53 54  1  0
 54 55  1  0
 55 56  1  0
 43 57  1  0
 35  3  1  0
 57 38  1  0
 17  6  1  0
 33 23  1  0
 55 43  1  0
 16  9  1  0
 30 25  1  0
  1 58  1  0
  2 59  1  0
  3 60  1  6
  4 61  1  0
  4 62  1  0
  5 63  1  0
  5 64  1  0
  7 65  1  0
  7 66  1  0
  8 67  1  0
  8 68  1  0
  9 69  1  1
 11 70  1  6
 13 71  1  0
 13 72  1  0
 14 73  1  1
 15 74  1  0
 16 75  1  6
 18 76  1  1
 19 77  1  0
 20 78  1  0
 20 79  1  0
 21 80  1  6
 22 81  1  0
 22 82  1  0
 22 83  1  0
 23 84  1  6
 26 85  1  0
 26 86  1  0
 27 87  1  0
 27 88  1  0
 28 89  1  0
 28 90  1  0
 29 91  1  0
 29 92  1  0
 31 93  1  0
 31 94  1  0
 32 95  1  0
 32 96  1  0
 33 97  1  6
 34 98  1  0
 34 99  1  0
 34100  1  0
 36101  1  1
 37102  1  0
 37103  1  0
 37104  1  0
 38105  1  6
 39106  1  0
 39107  1  0
 41108  1  0
 41109  1  0
 41110  1  0
 42111  1  0
 45112  1  1
 46113  1  0
 46114  1  0
 48115  1  0
 48116  1  0
 48117  1  0
 49118  1  0
 51119  1  0
 53120  1  0
 53121  1  0
 54122  1  0
 54123  1  0
 55124  1  1
 56125  1  0
M  END
$$$$
