@<TRIPOS>MOLECULE
*****
 42 45 0 0 0
SMALL
GASTEIGER

@<TRIPOS>ATOM
      1 N           2.3923    1.1902   -2.2258 N.am    1  UNL1       -0.3240
      2 C           3.4870    1.3292   -1.3455 C.2     1  UNL1        0.2615
      3 O           4.5563    1.8669   -1.7585 O.2     1  UNL1       -0.2687
      4 C           3.3779    0.8544    0.0260 C.ar    1  UNL1        0.1470
      5 C           4.3810    0.9384    0.9678 C.ar    1  UNL1        0.0605
      6 N           3.8772    0.3906    2.0909 N.ar    1  UNL1       -0.2339
      7 C           2.5955   -0.0266    1.8659 C.ar    1  UNL1        0.1549
      8 C           1.6644   -0.6414    2.6838 C.ar    1  UNL1       -0.0153
      9 C           0.4376   -0.9328    2.1253 C.ar    1  UNL1       -0.0290
     10 C           0.1416   -0.6294    0.8115 C.ar    1  UNL1        0.1103
     11 C          -1.1745   -0.9558    0.2456 C.ar    1  UNL1        0.0967
     12 C          -2.0673   -0.0340   -0.2054 C.ar    1  UNL1        0.0982
     13 C          -1.9952    1.4127   -0.2569 C.ar    1  UNL1        0.0027
     14 C          -1.8893    2.1074    0.9253 C.ar    1  UNL1       -0.0498
     15 C          -1.8168    3.5015    0.9435 C.ar    1  UNL1       -0.0258
     16 C          -1.8533    4.1776   -0.2541 C.ar    1  UNL1        0.1234
     17 F          -1.7839    5.5255   -0.2429 F       1  UNL1       -0.2055
     18 C          -1.9595    3.5104   -1.4664 C.ar    1  UNL1       -0.0258
     19 C          -2.0281    2.1262   -1.4259 C.ar    1  UNL1       -0.0498
     20 N          -3.1483   -0.7479   -0.6445 N.ar    1  UNL1       -0.2351
     21 C          -2.9478   -2.0513   -0.4789 C.ar    1  UNL1        0.0972
     22 N          -1.7258   -2.1650    0.0712 N.ar    1  UNL1       -0.3262
     23 C          -1.0917   -3.4083    0.4256 C.3     1  UNL1        0.0479
     24 C          -0.2708   -3.9743   -0.7155 C.3     1  UNL1        0.0622
     25 O          -1.0095   -4.2343   -1.8434 O.3     1  UNL1       -0.3933
     26 N           1.1008   -0.0321    0.0828 N.ar    1  UNL1       -0.1628
     27 N           2.2994    0.2669    0.5829 N.ar    1  UNL1       -0.2076
     28 H           1.8549    2.0261   -2.5336 H       1  UNL1        0.1453
     29 H           2.1176    0.2398   -2.5727 H       1  UNL1        0.1453
     30 H           5.3780    1.3613    0.8317 H       1  UNL1        0.0854
     31 H           1.9285   -0.8641    3.7044 H       1  UNL1        0.0655
     32 H          -0.2949   -1.4083    2.7434 H       1  UNL1        0.0641
     33 H          -1.8595    1.6043    1.8608 H       1  UNL1        0.0625
     34 H          -1.7338    4.0529    1.8616 H       1  UNL1        0.0646
     35 H          -1.9860    4.0690   -2.3949 H       1  UNL1        0.0646
     36 H          -2.1107    1.5759   -2.3454 H       1  UNL1        0.0625
     37 H          -3.6521   -2.8350   -0.7462 H       1  UNL1        0.1029
     38 H          -0.4198   -3.3004    1.2817 H       1  UNL1        0.0515
     39 H          -1.8588   -4.1789    0.6688 H       1  UNL1        0.0515
     40 H           0.1781   -4.9186   -0.3370 H       1  UNL1        0.0575
     41 H           0.5576   -3.2847   -0.9468 H       1  UNL1        0.0575
     42 H          -1.6484   -3.5041   -2.0598 H       1  UNL1        0.2095
@<TRIPOS>BOND
     1     1     2   am
     2     2     3    2
     3     2     4    1
     4     4     5   ar
     5     5     6   ar
     6     6     7   ar
     7     7     8   ar
     8     8     9   ar
     9     9    10   ar
    10    10    11    1
    11    11    12   ar
    12    12    13    1
    13    13    14   ar
    14    14    15   ar
    15    15    16   ar
    16    16    17    1
    17    16    18   ar
    18    18    19   ar
    19    12    20   ar
    20    20    21   ar
    21    21    22   ar
    22    22    23    1
    23    23    24    1
    24    24    25    1
    25    10    26   ar
    26    26    27   ar
    27    27     4   ar
    28    27     7   ar
    29    22    11   ar
    30    19    13   ar
    31     1    28    1
    32     1    29    1
    33     5    30    1
    34     8    31    1
    35     9    32    1
    36    14    33    1
    37    15    34    1
    38    18    35    1
    39    19    36    1
    40    21    37    1
    41    23    38    1
    42    23    39    1
    43    24    40    1
    44    24    41    1
    45    25    42    1
