
     RDKit          3D

 42 45  0  0  0  0  0  0  0  0999 V2000
    2.3923    1.1902   -2.2258 N   0  0  0  0  0  0  0  0  0  0  0  0
    3.4870    1.3292   -1.3455 C   0  0  0  0  0  0  0  0  0  0  0  0
    4.5563    1.8669   -1.7585 O   0  0  0  0  0  0  0  0  0  0  0  0
    3.3779    0.8544    0.0260 C   0  0  0  0  0  0  0  0  0  0  0  0
    4.3810    0.9384    0.9678 C   0  0  0  0  0  0  0  0  0  0  0  0
    3.8772    0.3906    2.0909 N   0  0  0  0  0  0  0  0  0  0  0  0
    2.5955   -0.0266    1.8659 C   0  0  0  0  0  0  0  0  0  0  0  0
    1.6644   -0.6414    2.6838 C   0  0  0  0  0  0  0  0  0  0  0  0
    0.4376   -0.9328    2.1253 C   0  0  0  0  0  0  0  0  0  0  0  0
    0.1416   -0.6294    0.8115 C   0  0  0  0  0  0  0  0  0  0  0  0
   -1.1745   -0.9558    0.2456 C   0  0  0  0  0  0  0  0  0  0  0  0
   -2.0673   -0.0340   -0.2054 C   0  0  0  0  0  0  0  0  0  0  0  0
   -1.9952    1.4127   -0.2569 C   0  0  0  0  0  0  0  0  0  0  0  0
   -1.8893    2.1074    0.9253 C   0  0  0  0  0  0  0  0  0  0  0  0
   -1.8168    3.5015    0.9435 C   0  0  0  0  0  0  0  0  0  0  0  0
   -1.8533    4.1776   -0.2541 C   0  0  0  0  0  0  0  0  0  0  0  0
   -1.7839    5.5255   -0.2429 F   0  0  0  0  0  0  0  0  0  0  0  0
   -1.9595    3.5104   -1.4664 C   0  0  0  0  0  0  0  0  0  0  0  0
   -2.0281    2.1262   -1.4259 C   0  0  0  0  0  0  0  0  0  0  0  0
   -3.1483   -0.7479   -0.6445 N   0  0  0  0  0  0  0  0  0  0  0  0
   -2.9478   -2.0513   -0.4789 C   0  0  0  0  0  0  0  0  0  0  0  0
   -1.7258   -2.1650    0.0712 N   0  0  0  0  0  0  0  0  0  0  0  0
   -1.0917   -3.4083    0.4256 C   0  0  0  0  0  0  0  0  0  0  0  0
   -0.2708   -3.9743   -0.7155 C   0  0  0  0  0  0  0  0  0  0  0  0
   -1.0095   -4.2343   -1.8434 O   0  0  0  0  0  0  0  0  0  0  0  0
    1.1008   -0.0321    0.0828 N   0  0  0  0  0  0  0  0  0  0  0  0
    2.2994    0.2669    0.5829 N   0  0  0  0  0  0  0  0  0  0  0  0
    1.8549    2.0261   -2.5336 H   0  0  0  0  0  0  0  0  0  0  0  0
    2.1176    0.2398   -2.5727 H   0  0  0  0  0  0  0  0  0  0  0  0
    5.3780    1.3613    0.8317 H   0  0  0  0  0  0  0  0  0  0  0  0
    1.9285   -0.8641    3.7044 H   0  0  0  0  0  0  0  0  0  0  0  0
   -0.2949   -1.4083    2.7434 H   0  0  0  0  0  0  0  0  0  0  0  0
   -1.8595    1.6043    1.8608 H   0  0  0  0  0  0  0  0  0  0  0  0
   -1.7338    4.0529    1.8616 H   0  0  0  0  0  0  0  0  0  0  0  0
   -1.9860    4.0690   -2.3949 H   0  0  0  0  0  0  0  0  0  0  0  0
   -2.1107    1.5759   -2.3454 H   0  0  0  0  0  0  0  0  0  0  0  0
   -3.6521   -2.8350   -0.7462 H   0  0  0  0  0  0  0  0  0  0  0  0
   -0.4198   -3.3004    1.2817 H   0  0  0  0  0  0  0  0  0  0  0  0
   -1.8588   -4.1789    0.6688 H   0  0  0  0  0  0  0  0  0  0  0  0
    0.1781   -4.9186   -0.3370 H   0  0  0  0  0  0  0  0  0  0  0  0
    0.5576   -3.2847   -0.9468 H   0  0  0  0  0  0  0  0  0  0  0  0
   -1.6484   -3.5041   -2.0598 H   0  0  0  0  0  0  0  0  0  0  0  0
  1  2  1  0
  2  3  2  0
  2  4  1  0
  4  5  2  0
  5  6  1  0
  6  7  2  0
  7  8  1  0
  8  9  2  0
  9 10  1  0
 10 11  1  0
 11 12  2  0
 12 13  1  0
 13 14  2  0
 14 15  1  0
 15 16  2  0
 16 17  1  0
 16 18  1  0
 18 19  2  0
 12 20  1  0
 20 21  2  0
 21 22  1  0
 22 23  1  0
 23 24  1  0
 24 25  1  0
 10 26  2  0
 26 27  1  0
 27  4  1  0
 27  7  1  0
 22 11  1  0
 19 13  1  0
  1 28  1  0
  1 29  1  0
  5 30  1  0
  8 31  1  0
  9 32  1  0
 14 33  1  0
 15 34  1  0
 18 35  1  0
 19 36  1  0
 21 37  1  0
 23 38  1  0
 23 39  1  0
 24 40  1  0
 24 41  1  0
 25 42  1  0
M  END
$$$$
