@<TRIPOS>MOLECULE
*****
 64 67 0 0 0
SMALL
GASTEIGER

@<TRIPOS>ATOM
      1 C           1.2082    5.0818   -0.4443 C.3     1  UNL1       -0.0390
      2 C           2.2193    3.9939   -0.2592 C.ar    1  UNL1       -0.0382
      3 C           3.5565    4.3230   -0.2783 C.ar    1  UNL1       -0.0564
      4 C           4.4995    3.3315   -0.1174 C.ar    1  UNL1       -0.0402
      5 C           4.1232    1.9913    0.0656 C.ar    1  UNL1        0.0344
      6 N           5.1402    1.0270    0.1867 N.am    1  UNL1       -0.2815
      7 C           4.9936   -0.3265    0.4754 C.2     1  UNL1        0.2483
      8 O           3.8398   -0.7960    0.6756 O.2     1  UNL1       -0.2699
      9 C           6.1000   -1.2535    0.5629 C.ar    1  UNL1        0.0376
     10 C           5.8669   -2.5567    0.9290 C.ar    1  UNL1       -0.0496
     11 C           6.9005   -3.4520    0.9953 C.ar    1  UNL1       -0.0605
     12 C           8.1977   -3.0989    0.7046 C.ar    1  UNL1       -0.0501
     13 C           8.4325   -1.7940    0.3385 C.ar    1  UNL1        0.0555
     14 C           9.7929   -1.3283    0.0075 C.3     1  UNL1        0.4174
     15 F          10.4575   -0.8423    1.1335 F       1  UNL1       -0.1659
     16 F          10.4927   -2.3739   -0.5758 F       1  UNL1       -0.1659
     17 F           9.7501   -0.3078   -0.9233 F       1  UNL1       -0.1659
     18 C           7.3741   -0.8661    0.2680 C.ar    1  UNL1       -0.0380
     19 C           2.7768    1.7218    0.0764 C.ar    1  UNL1       -0.0281
     20 C           1.8062    2.6952   -0.0831 C.ar    1  UNL1        0.0417
     21 C           0.3689    2.3815   -0.0870 C.2     1  UNL1        0.2486
     22 O          -0.4169    2.9981    0.7071 O.2     1  UNL1       -0.2698
     23 N          -0.2265    1.4172   -0.9370 N.am    1  UNL1       -0.2790
     24 C          -1.6094    1.1238   -0.9490 C.ar    1  UNL1        0.0704
     25 C          -2.2364    0.1611   -0.1995 C.ar    1  UNL1        0.0539
     26 N          -3.5840   -0.0106   -0.3073 N.ar    1  UNL1       -0.2211
     27 C          -4.3637    0.7160   -1.1183 C.ar    1  UNL1        0.2154
     28 N          -5.7527    0.5172   -1.2222 N.pl3   1  UNL1       -0.3105
     29 C          -6.4263   -0.4893   -0.4946 C.3     1  UNL1        0.0256
     30 C          -5.9913   -1.9157   -0.8447 C.3     1  UNL1       -0.0216
     31 C          -7.0891   -2.8059   -0.2961 C.3     1  UNL1        0.0003
     32 N          -7.2143   -2.6692    1.1124 N.3     1  UNL1       -0.3052
     33 C          -8.0341   -3.6327    1.7664 C.3     1  UNL1       -0.0128
     34 C          -7.2403   -1.3522    1.6452 C.3     1  UNL1        0.0003
     35 C          -6.2418   -0.4025    1.0189 C.3     1  UNL1       -0.0216
     36 N          -3.7405    1.6753   -1.8660 N.ar    1  UNL1       -0.2211
     37 C          -2.4191    1.8708   -1.7847 C.ar    1  UNL1        0.0539
     38 H           0.6570    5.2488    0.5102 H       1  UNL1        0.0278
     39 H           0.4765    4.8428   -1.2250 H       1  UNL1        0.0278
     40 H           1.7419    6.0456   -0.6358 H       1  UNL1        0.0278
     41 H           3.8995    5.3452   -0.4172 H       1  UNL1        0.0621
     42 H           5.5618    3.5466   -0.1215 H       1  UNL1        0.0636
     43 H           6.1382    1.3639    0.0420 H       1  UNL1        0.1551
     44 H           4.8735   -2.9349    1.1765 H       1  UNL1        0.0625
     45 H           6.7076   -4.4744    1.2824 H       1  UNL1        0.0618
     46 H           9.0346   -3.7744    0.7421 H       1  UNL1        0.0623
     47 H           7.6360    0.1359   -0.0315 H       1  UNL1        0.0631
     48 H           2.4007    0.7285    0.2063 H       1  UNL1        0.0644
     49 H           0.4167    0.9007   -1.5863 H       1  UNL1        0.1552
     50 H          -1.6354   -0.4311    0.4576 H       1  UNL1        0.0850
     51 H          -6.3051    1.1368   -1.8571 H       1  UNL1        0.1492
     52 H          -7.5275   -0.4703   -0.6664 H       1  UNL1        0.0499
     53 H          -5.0773   -2.1114   -0.2544 H       1  UNL1        0.0295
     54 H          -5.8700   -2.0596   -1.9235 H       1  UNL1        0.0295
     55 H          -8.0147   -2.6024   -0.8416 H       1  UNL1        0.0427
     56 H          -6.7742   -3.8492   -0.5089 H       1  UNL1        0.0427
     57 H          -7.5738   -4.6470    1.8166 H       1  UNL1        0.0391
     58 H          -8.9949   -3.7504    1.1971 H       1  UNL1        0.0391
     59 H          -8.2750   -3.2617    2.7902 H       1  UNL1        0.0391
     60 H          -6.9376   -1.4371    2.7292 H       1  UNL1        0.0427
     61 H          -8.2455   -0.8609    1.6650 H       1  UNL1        0.0427
     62 H          -5.2139   -0.6358    1.3093 H       1  UNL1        0.0295
     63 H          -6.4966    0.6140    1.3105 H       1  UNL1        0.0295
     64 H          -1.9136    2.6397   -2.3868 H       1  UNL1        0.0850
@<TRIPOS>BOND
     1     1     2    1
     2     2     3   ar
     3     3     4   ar
     4     4     5   ar
     5     5     6    1
     6     6     7   am
     7     7     8    2
     8     7     9    1
     9     9    10   ar
    10    10    11   ar
    11    11    12   ar
    12    12    13   ar
    13    13    14    1
    14    14    15    1
    15    14    16    1
    16    14    17    1
    17    13    18   ar
    18     5    19   ar
    19    19    20   ar
    20    20    21    1
    21    21    22    2
    22    21    23   am
    23    23    24    1
    24    24    25   ar
    25    25    26   ar
    26    26    27   ar
    27    27    28    1
    28    28    29    1
    29    29    30    1
    30    30    31    1
    31    31    32    1
    32    32    33    1
    33    32    34    1
    34    34    35    1
    35    27    36   ar
    36    36    37   ar
    37    20     2   ar
    38    37    24   ar
    39    18     9   ar
    40    35    29    1
    41     1    38    1
    42     1    39    1
    43     1    40    1
    44     3    41    1
    45     4    42    1
    46     6    43    1
    47    10    44    1
    48    11    45    1
    49    12    46    1
    50    18    47    1
    51    19    48    1
    52    23    49    1
    53    25    50    1
    54    28    51    1
    55    29    52    1
    56    30    53    1
    57    30    54    1
    58    31    55    1
    59    31    56    1
    60    33    57    1
    61    33    58    1
    62    33    59    1
    63    34    60    1
    64    34    61    1
    65    35    62    1
    66    35    63    1
    67    37    64    1
