
     RDKit          3D

 64 67  0  0  0  0  0  0  0  0999 V2000
    1.2082    5.0818   -0.4443 C   0  0  0  0  0  0  0  0  0  0  0  0
    2.2193    3.9939   -0.2592 C   0  0  0  0  0  0  0  0  0  0  0  0
    3.5565    4.3230   -0.2783 C   0  0  0  0  0  0  0  0  0  0  0  0
    4.4995    3.3315   -0.1174 C   0  0  0  0  0  0  0  0  0  0  0  0
    4.1232    1.9913    0.0656 C   0  0  0  0  0  0  0  0  0  0  0  0
    5.1402    1.0270    0.1867 N   0  0  0  0  0  0  0  0  0  0  0  0
    4.9936   -0.3265    0.4754 C   0  0  0  0  0  0  0  0  0  0  0  0
    3.8398   -0.7960    0.6756 O   0  0  0  0  0  0  0  0  0  0  0  0
    6.1000   -1.2535    0.5629 C   0  0  0  0  0  0  0  0  0  0  0  0
    5.8669   -2.5567    0.9290 C   0  0  0  0  0  0  0  0  0  0  0  0
    6.9005   -3.4520    0.9953 C   0  0  0  0  0  0  0  0  0  0  0  0
    8.1977   -3.0989    0.7046 C   0  0  0  0  0  0  0  0  0  0  0  0
    8.4325   -1.7940    0.3385 C   0  0  0  0  0  0  0  0  0  0  0  0
    9.7929   -1.3283    0.0075 C   0  0  0  0  0  0  0  0  0  0  0  0
   10.4575   -0.8423    1.1335 F   0  0  0  0  0  0  0  0  0  0  0  0
   10.4927   -2.3739   -0.5758 F   0  0  0  0  0  0  0  0  0  0  0  0
    9.7501   -0.3078   -0.9233 F   0  0  0  0  0  0  0  0  0  0  0  0
    7.3741   -0.8661    0.2680 C   0  0  0  0  0  0  0  0  0  0  0  0
    2.7768    1.7218    0.0764 C   0  0  0  0  0  0  0  0  0  0  0  0
    1.8062    2.6952   -0.0831 C   0  0  0  0  0  0  0  0  0  0  0  0
    0.3689    2.3815   -0.0870 C   0  0  0  0  0  0  0  0  0  0  0  0
   -0.4169    2.9981    0.7071 O   0  0  0  0  0  0  0  0  0  0  0  0
   -0.2265    1.4172   -0.9370 N   0  0  0  0  0  0  0  0  0  0  0  0
   -1.6094    1.1238   -0.9490 C   0  0  0  0  0  0  0  0  0  0  0  0
   -2.2364    0.1611   -0.1995 C   0  0  0  0  0  0  0  0  0  0  0  0
   -3.5840   -0.0106   -0.3073 N   0  0  0  0  0  0  0  0  0  0  0  0
   -4.3637    0.7160   -1.1183 C   0  0  0  0  0  0  0  0  0  0  0  0
   -5.7527    0.5172   -1.2222 N   0  0  0  0  0  0  0  0  0  0  0  0
   -6.4263   -0.4893   -0.4946 C   0  0  0  0  0  0  0  0  0  0  0  0
   -5.9913   -1.9157   -0.8447 C   0  0  0  0  0  0  0  0  0  0  0  0
   -7.0891   -2.8059   -0.2961 C   0  0  0  0  0  0  0  0  0  0  0  0
   -7.2143   -2.6692    1.1124 N   0  0  0  0  0  0  0  0  0  0  0  0
   -8.0341   -3.6327    1.7664 C   0  0  0  0  0  0  0  0  0  0  0  0
   -7.2403   -1.3522    1.6452 C   0  0  0  0  0  0  0  0  0  0  0  0
   -6.2418   -0.4025    1.0189 C   0  0  0  0  0  0  0  0  0  0  0  0
   -3.7405    1.6753   -1.8660 N   0  0  0  0  0  0  0  0  0  0  0  0
   -2.4191    1.8708   -1.7847 C   0  0  0  0  0  0  0  0  0  0  0  0
    0.6570    5.2488    0.5102 H   0  0  0  0  0  0  0  0  0  0  0  0
    0.4765    4.8428   -1.2250 H   0  0  0  0  0  0  0  0  0  0  0  0
    1.7419    6.0456   -0.6358 H   0  0  0  0  0  0  0  0  0  0  0  0
    3.8995    5.3452   -0.4172 H   0  0  0  0  0  0  0  0  0  0  0  0
    5.5618    3.5466   -0.1215 H   0  0  0  0  0  0  0  0  0  0  0  0
    6.1382    1.3639    0.0420 H   0  0  0  0  0  0  0  0  0  0  0  0
    4.8735   -2.9349    1.1765 H   0  0  0  0  0  0  0  0  0  0  0  0
    6.7076   -4.4744    1.2824 H   0  0  0  0  0  0  0  0  0  0  0  0
    9.0346   -3.7744    0.7421 H   0  0  0  0  0  0  0  0  0  0  0  0
    7.6360    0.1359   -0.0315 H   0  0  0  0  0  0  0  0  0  0  0  0
    2.4007    0.7285    0.2063 H   0  0  0  0  0  0  0  0  0  0  0  0
    0.4167    0.9007   -1.5863 H   0  0  0  0  0  0  0  0  0  0  0  0
   -1.6354   -0.4311    0.4576 H   0  0  0  0  0  0  0  0  0  0  0  0
   -6.3051    1.1368   -1.8571 H   0  0  0  0  0  0  0  0  0  0  0  0
   -7.5275   -0.4703   -0.6664 H   0  0  0  0  0  0  0  0  0  0  0  0
   -5.0773   -2.1114   -0.2544 H   0  0  0  0  0  0  0  0  0  0  0  0
   -5.8700   -2.0596   -1.9235 H   0  0  0  0  0  0  0  0  0  0  0  0
   -8.0147   -2.6024   -0.8416 H   0  0  0  0  0  0  0  0  0  0  0  0
   -6.7742   -3.8492   -0.5089 H   0  0  0  0  0  0  0  0  0  0  0  0
   -7.5738   -4.6470    1.8166 H   0  0  0  0  0  0  0  0  0  0  0  0
   -8.9949   -3.7504    1.1971 H   0  0  0  0  0  0  0  0  0  0  0  0
   -8.2750   -3.2617    2.7902 H   0  0  0  0  0  0  0  0  0  0  0  0
   -6.9376   -1.4371    2.7292 H   0  0  0  0  0  0  0  0  0  0  0  0
   -8.2455   -0.8609    1.6650 H   0  0  0  0  0  0  0  0  0  0  0  0
   -5.2139   -0.6358    1.3093 H   0  0  0  0  0  0  0  0  0  0  0  0
   -6.4966    0.6140    1.3105 H   0  0  0  0  0  0  0  0  0  0  0  0
   -1.9136    2.6397   -2.3868 H   0  0  0  0  0  0  0  0  0  0  0  0
  1  2  1  0
  2  3  2  0
  3  4  1  0
  4  5  2  0
  5  6  1  0
  6  7  1  0
  7  8  2  0
  7  9  1  0
  9 10  2  0
 10 11  1  0
 11 12  2  0
 12 13  1  0
 13 14  1  0
 14 15  1  0
 14 16  1  0
 14 17  1  0
 13 18  2  0
  5 19  1  0
 19 20  2  0
 20 21  1  0
 21 22  2  0
 21 23  1  0
 23 24  1  0
 24 25  2  0
 25 26  1  0
 26 27  2  0
 27 28  1  0
 28 29  1  0
 29 30  1  0
 30 31  1  0
 31 32  1  0
 32 33  1  0
 32 34  1  0
 34 35  1  0
 27 36  1  0
 36 37  2  0
 20  2  1  0
 37 24  1  0
 18  9  1  0
 35 29  1  0
  1 38  1  0
  1 39  1  0
  1 40  1  0
  3 41  1  0
  4 42  1  0
  6 43  1  0
 10 44  1  0
 11 45  1  0
 12 46  1  0
 18 47  1  0
 19 48  1  0
 23 49  1  0
 25 50  1  0
 28 51  1  0
 29 52  1  0
 30 53  1  0
 30 54  1  0
 31 55  1  0
 31 56  1  0
 33 57  1  0
 33 58  1  0
 33 59  1  0
 34 60  1  0
 34 61  1  0
 35 62  1  0
 35 63  1  0
 37 64  1  0
M  END
$$$$
