
     RDKit          3D

 55 58  0  0  0  0  0  0  0  0999 V2000
    0.5141   -3.4038    0.3135 C   0  0  0  0  0  0  0  0  0  0  0  0
   -0.2248   -2.2250    0.2024 O   0  0  0  0  0  0  0  0  0  0  0  0
    0.3413   -0.9625    0.0925 C   0  0  0  0  0  0  0  0  0  0  0  0
    1.7295   -0.8273    0.0898 C   0  0  0  0  0  0  0  0  0  0  0  0
    2.3141    0.4112   -0.0180 C   0  0  0  0  0  0  0  0  0  0  0  0
    3.6887    0.5732   -0.0214 C   0  0  0  0  0  0  0  0  0  0  0  0
    4.5698   -0.5297    0.0582 N   0  0  0  0  0  0  0  0  0  0  0  0
    5.9791   -0.3647    0.1567 C   0  0  0  0  0  0  0  0  0  0  0  0
    6.5690    0.7259    0.7337 C   0  0  0  0  0  0  0  0  0  0  0  0
    7.9657    0.8479    0.7858 C   0  0  0  0  0  0  0  0  0  0  0  0
    8.7771   -0.1309    0.2561 C   0  0  0  0  0  0  0  0  0  0  0  0
   10.5223   -0.0402    0.2878 Cl  0  0  0  0  0  0  0  0  0  0  0  0
    8.2026   -1.2295   -0.3247 C   0  0  0  0  0  0  0  0  0  0  0  0
    9.1735   -2.5227   -1.0230 Cl  0  0  0  0  0  0  0  0  0  0  0  0
    6.8399   -1.3445   -0.3736 C   0  0  0  0  0  0  0  0  0  0  0  0
    4.1501    1.8110   -0.1277 N   0  0  0  0  0  0  0  0  0  0  0  0
    3.4057    2.9027   -0.2308 C   0  0  0  0  0  0  0  0  0  0  0  0
    2.0870    2.7678   -0.2298 N   0  0  0  0  0  0  0  0  0  0  0  0
    1.5346    1.5554   -0.1263 C   0  0  0  0  0  0  0  0  0  0  0  0
    0.1532    1.3980   -0.1218 C   0  0  0  0  0  0  0  0  0  0  0  0
   -0.4481    0.1651   -0.0147 C   0  0  0  0  0  0  0  0  0  0  0  0
   -1.8116    0.0717   -0.0157 O   0  0  0  0  0  0  0  0  0  0  0  0
   -2.7319    1.1331   -0.1199 C   0  0  0  0  0  0  0  0  0  0  0  0
   -4.1187    0.6390   -0.0811 C   0  0  0  0  0  0  0  0  0  0  0  0
   -4.6897    0.0160   -1.1611 C   0  0  0  0  0  0  0  0  0  0  0  0
   -3.9081   -0.1716   -2.4026 C   0  0  0  0  0  0  0  0  0  0  0  0
   -5.9992   -0.4268   -1.0529 C   0  0  0  0  0  0  0  0  0  0  0  0
   -6.7612   -0.2743    0.0847 C   0  0  0  0  0  0  0  0  0  0  0  0
   -8.1731   -0.7696    0.1592 C   0  0  0  0  0  0  0  0  0  0  0  0
   -6.1671    0.3566    1.1625 C   0  0  0  0  0  0  0  0  0  0  0  0
   -4.8578    0.8130    1.0901 C   0  0  0  0  0  0  0  0  0  0  0  0
   -4.2048    1.4951    2.2388 C   0  0  0  0  0  0  0  0  0  0  0  0
    1.3902   -3.2948    0.9635 H   0  0  0  0  0  0  0  0  0  0  0  0
   -0.1762   -4.1748    0.7607 H   0  0  0  0  0  0  0  0  0  0  0  0
    0.7784   -3.7996   -0.6939 H   0  0  0  0  0  0  0  0  0  0  0  0
    2.3682   -1.6918    0.1736 H   0  0  0  0  0  0  0  0  0  0  0  0
    4.2680   -1.5324    0.0500 H   0  0  0  0  0  0  0  0  0  0  0  0
    5.9809    1.5100    1.1729 H   0  0  0  0  0  0  0  0  0  0  0  0
    8.3964    1.7105    1.2423 H   0  0  0  0  0  0  0  0  0  0  0  0
    6.3401   -2.1960   -0.8233 H   0  0  0  0  0  0  0  0  0  0  0  0
    3.8809    3.8915   -0.3147 H   0  0  0  0  0  0  0  0  0  0  0  0
   -0.4294    2.3070   -0.2081 H   0  0  0  0  0  0  0  0  0  0  0  0
   -2.5024    1.6837   -1.0546 H   0  0  0  0  0  0  0  0  0  0  0  0
   -2.5247    1.8675    0.6952 H   0  0  0  0  0  0  0  0  0  0  0  0
   -4.4184    0.4676   -3.1818 H   0  0  0  0  0  0  0  0  0  0  0  0
   -3.9797   -1.2073   -2.7948 H   0  0  0  0  0  0  0  0  0  0  0  0
   -2.8808    0.1684   -2.3326 H   0  0  0  0  0  0  0  0  0  0  0  0
   -6.4393   -0.9162   -1.9097 H   0  0  0  0  0  0  0  0  0  0  0  0
   -8.7255   -0.3405   -0.6776 H   0  0  0  0  0  0  0  0  0  0  0  0
   -8.5902   -0.5994    1.1534 H   0  0  0  0  0  0  0  0  0  0  0  0
   -8.1748   -1.8879    0.0134 H   0  0  0  0  0  0  0  0  0  0  0  0
   -6.7486    0.4861    2.0638 H   0  0  0  0  0  0  0  0  0  0  0  0
   -4.9404    1.5047    3.0698 H   0  0  0  0  0  0  0  0  0  0  0  0
   -4.0327    2.5594    1.9772 H   0  0  0  0  0  0  0  0  0  0  0  0
   -3.2615    1.0248    2.5324 H   0  0  0  0  0  0  0  0  0  0  0  0
  1  2  1  0
  2  3  1  0
  3  4  2  0
  4  5  1  0
  5  6  2  0
  6  7  1  0
  7  8  1  0
  8  9  2  0
  9 10  1  0
 10 11  2  0
 11 12  1  0
 11 13  1  0
 13 14  1  0
 13 15  2  0
  6 16  1  0
 16 17  2  0
 17 18  1  0
 18 19  2  0
 19 20  1  0
 20 21  2  0
 21 22  1  0
 22 23  1  0
 23 24  1  0
 24 25  2  0
 25 26  1  0
 25 27  1  0
 27 28  2  0
 28 29  1  0
 28 30  1  0
 30 31  2  0
 31 32  1  0
 21  3  1  0
 31 24  1  0
 19  5  1  0
 15  8  1  0
  1 33  1  0
  1 34  1  0
  1 35  1  0
  4 36  1  0
  7 37  1  0
  9 38  1  0
 10 39  1  0
 15 40  1  0
 17 41  1  0
 20 42  1  0
 23 43  1  0
 23 44  1  0
 26 45  1  0
 26 46  1  0
 26 47  1  0
 27 48  1  0
 29 49  1  0
 29 50  1  0
 29 51  1  0
 30 52  1  0
 32 53  1  0
 32 54  1  0
 32 55  1  0
M  END
$$$$
