@<TRIPOS>MOLECULE
*****
 55 58 0 0 0
SMALL
GASTEIGER

@<TRIPOS>ATOM
      1 C           0.5141   -3.4038    0.3135 C.3     1  UNL1        0.0790
      2 O          -0.2248   -2.2250    0.2024 O.3     1  UNL1       -0.4914
      3 C           0.3413   -0.9625    0.0925 C.ar    1  UNL1        0.1623
      4 C           1.7295   -0.8273    0.0898 C.ar    1  UNL1       -0.0038
      5 C           2.3141    0.4112   -0.0180 C.ar    1  UNL1        0.0441
      6 C           3.6887    0.5732   -0.0214 C.ar    1  UNL1        0.1340
      7 N           4.5698   -0.5297    0.0582 N.pl3   1  UNL1       -0.2988
      8 C           5.9791   -0.3647    0.1567 C.ar    1  UNL1        0.0339
      9 C           6.5690    0.7259    0.7337 C.ar    1  UNL1       -0.0390
     10 C           7.9657    0.8479    0.7858 C.ar    1  UNL1       -0.0402
     11 C           8.7771   -0.1309    0.2561 C.ar    1  UNL1        0.0594
     12 CL         10.5223   -0.0402    0.2878 Cl      1  UNL1       -0.0820
     13 C           8.2026   -1.2295   -0.3247 C.ar    1  UNL1        0.0610
     14 CL          9.1735   -2.5227   -1.0230 Cl      1  UNL1       -0.0820
     15 C           6.8399   -1.3445   -0.3736 C.ar    1  UNL1       -0.0207
     16 N           4.1501    1.8110   -0.1277 N.ar    1  UNL1       -0.2200
     17 C           3.4057    2.9027   -0.2308 C.ar    1  UNL1        0.1187
     18 N           2.0870    2.7678   -0.2298 N.ar    1  UNL1       -0.2352
     19 C           1.5346    1.5554   -0.1263 C.ar    1  UNL1        0.0797
     20 C           0.1532    1.3980   -0.1218 C.ar    1  UNL1        0.0099
     21 C          -0.4481    0.1651   -0.0147 C.ar    1  UNL1        0.1644
     22 O          -1.8116    0.0717   -0.0157 O.3     1  UNL1       -0.4836
     23 C          -2.7319    1.1331   -0.1199 C.3     1  UNL1        0.1153
     24 C          -4.1187    0.6390   -0.0811 C.ar    1  UNL1       -0.0046
     25 C          -4.6897    0.0160   -1.1611 C.ar    1  UNL1       -0.0436
     26 C          -3.9081   -0.1716   -2.4026 C.3     1  UNL1       -0.0393
     27 C          -5.9992   -0.4268   -1.0529 C.ar    1  UNL1       -0.0555
     28 C          -6.7612   -0.2743    0.0847 C.ar    1  UNL1       -0.0499
     29 C          -8.1731   -0.7696    0.1592 C.3     1  UNL1       -0.0397
     30 C          -6.1671    0.3566    1.1625 C.ar    1  UNL1       -0.0555
     31 C          -4.8578    0.8130    1.0901 C.ar    1  UNL1       -0.0436
     32 C          -4.2048    1.4951    2.2388 C.3     1  UNL1       -0.0393
     33 H           1.3902   -3.2948    0.9635 H       1  UNL1        0.0660
     34 H          -0.1762   -4.1748    0.7607 H       1  UNL1        0.0660
     35 H           0.7784   -3.7996   -0.6939 H       1  UNL1        0.0660
     36 H           2.3682   -1.6918    0.1736 H       1  UNL1        0.0663
     37 H           4.2680   -1.5324    0.0500 H       1  UNL1        0.1536
     38 H           5.9809    1.5100    1.1729 H       1  UNL1        0.0636
     39 H           8.3964    1.7105    1.2423 H       1  UNL1        0.0633
     40 H           6.3401   -2.1960   -0.8233 H       1  UNL1        0.0651
     41 H           3.8809    3.8915   -0.3147 H       1  UNL1        0.1048
     42 H          -0.4294    2.3070   -0.2081 H       1  UNL1        0.0677
     43 H          -2.5024    1.6837   -1.0546 H       1  UNL1        0.0748
     44 H          -2.5247    1.8675    0.6952 H       1  UNL1        0.0748
     45 H          -4.4184    0.4676   -3.1818 H       1  UNL1        0.0278
     46 H          -3.9797   -1.2073   -2.7948 H       1  UNL1        0.0278
     47 H          -2.8808    0.1684   -2.3326 H       1  UNL1        0.0278
     48 H          -6.4393   -0.9162   -1.9097 H       1  UNL1        0.0623
     49 H          -8.7255   -0.3405   -0.6776 H       1  UNL1        0.0278
     50 H          -8.5902   -0.5994    1.1534 H       1  UNL1        0.0278
     51 H          -8.1748   -1.8879    0.0134 H       1  UNL1        0.0278
     52 H          -6.7486    0.4861    2.0638 H       1  UNL1        0.0623
     53 H          -4.9404    1.5047    3.0698 H       1  UNL1        0.0278
     54 H          -4.0327    2.5594    1.9772 H       1  UNL1        0.0278
     55 H          -3.2615    1.0248    2.5324 H       1  UNL1        0.0278
@<TRIPOS>BOND
     1     1     2    1
     2     2     3    1
     3     3     4   ar
     4     4     5   ar
     5     5     6   ar
     6     6     7    1
     7     7     8    1
     8     8     9   ar
     9     9    10   ar
    10    10    11   ar
    11    11    12    1
    12    11    13   ar
    13    13    14    1
    14    13    15   ar
    15     6    16   ar
    16    16    17   ar
    17    17    18   ar
    18    18    19   ar
    19    19    20   ar
    20    20    21   ar
    21    21    22    1
    22    22    23    1
    23    23    24    1
    24    24    25   ar
    25    25    26    1
    26    25    27   ar
    27    27    28   ar
    28    28    29    1
    29    28    30   ar
    30    30    31   ar
    31    31    32    1
    32    21     3   ar
    33    31    24   ar
    34    19     5   ar
    35    15     8   ar
    36     1    33    1
    37     1    34    1
    38     1    35    1
    39     4    36    1
    40     7    37    1
    41     9    38    1
    42    10    39    1
    43    15    40    1
    44    17    41    1
    45    20    42    1
    46    23    43    1
    47    23    44    1
    48    26    45    1
    49    26    46    1
    50    26    47    1
    51    27    48    1
    52    29    49    1
    53    29    50    1
    54    29    51    1
    55    30    52    1
    56    32    53    1
    57    32    54    1
    58    32    55    1
