
     RDKit          3D

 45 48  0  0  0  0  0  0  0  0999 V2000
    1.1470    2.0367   -4.1932 C   0  0  0  0  0  0  0  0  0  0  0  0
    0.6087    2.1476   -2.7444 C   0  0  0  0  0  0  0  0  0  0  0  0
    1.6874    1.9264   -1.7491 C   0  0  0  0  0  0  0  0  0  0  0  0
   -0.5817    1.2460   -2.6820 C   0  0  0  0  0  0  0  0  0  0  0  0
   -1.2920    1.1778   -1.4495 N   0  0  0  0  0  0  0  0  0  0  0  0
   -2.3362    1.8577   -1.0070 C   0  0  0  0  0  0  0  0  0  0  0  0
   -2.8221    1.5870    0.1008 N   0  0  0  0  0  0  0  0  0  0  0  0
   -2.0044    0.5379    0.5794 C   0  0  0  0  0  0  0  0  0  0  0  0
   -2.2514   -0.0490    1.8793 C   0  0  0  0  0  0  0  0  0  0  0  0
   -2.9467    0.6577    2.8276 C   0  0  0  0  0  0  0  0  0  0  0  0
   -3.2478    0.0281    3.9901 C   0  0  0  0  0  0  0  0  0  0  0  0
   -3.0154   -1.1522    4.4292 C   0  0  0  0  0  0  0  0  0  0  0  0
   -3.3736   -1.6715    5.6195 F   0  0  0  0  0  0  0  0  0  0  0  0
   -2.2403   -1.9917    3.4546 C   0  0  0  0  0  0  0  0  0  0  0  0
   -1.9178   -1.3733    2.2432 C   0  0  0  0  0  0  0  0  0  0  0  0
   -1.0668    0.2925   -0.3742 C   0  0  0  0  0  0  0  0  0  0  0  0
   -0.0123   -0.7260   -0.3407 C   0  0  0  0  0  0  0  0  0  0  0  0
    0.1217   -1.6572   -1.1976 C   0  0  0  0  0  0  0  0  0  0  0  0
    1.2008   -2.6006   -1.2395 C   0  0  0  0  0  0  0  0  0  0  0  0
    2.1480   -2.3873   -0.2048 C   0  0  0  0  0  0  0  0  0  0  0  0
    3.3108   -3.1450   -0.0698 N   0  0  0  0  0  0  0  0  0  0  0  0
    3.9230   -2.4901    1.0537 C   0  0  0  0  0  0  0  0  0  0  0  0
    3.1510   -1.4965    1.4649 C   0  0  0  0  0  0  0  0  0  0  0  0
    3.4755   -0.3235    2.3704 C   0  0  0  0  0  0  0  0  0  0  0  0
    3.6799    0.4120    2.9596 N   0  0  0  0  0  0  0  0  0  0  0  0
    2.0222   -1.4606    0.6529 N   0  0  0  0  0  0  0  0  0  0  0  0
    0.9738   -0.5655    0.6770 C   0  0  0  0  0  0  0  0  0  0  0  0
    2.1624    1.5567   -4.0859 H   0  0  0  0  0  0  0  0  0  0  0  0
    0.4669    1.3898   -4.7592 H   0  0  0  0  0  0  0  0  0  0  0  0
    1.1975    3.0793   -4.5655 H   0  0  0  0  0  0  0  0  0  0  0  0
    0.2252    3.1930   -2.5678 H   0  0  0  0  0  0  0  0  0  0  0  0
    2.0159    0.8899   -1.6147 H   0  0  0  0  0  0  0  0  0  0  0  0
    2.5589    2.5933   -2.0202 H   0  0  0  0  0  0  0  0  0  0  0  0
    1.4070    2.3191   -0.7277 H   0  0  0  0  0  0  0  0  0  0  0  0
   -0.3577    0.1901   -3.0291 H   0  0  0  0  0  0  0  0  0  0  0  0
   -1.2770    1.6833   -3.4969 H   0  0  0  0  0  0  0  0  0  0  0  0
   -2.7579    2.6943   -1.6582 H   0  0  0  0  0  0  0  0  0  0  0  0
   -3.2293    1.6957    2.6139 H   0  0  0  0  0  0  0  0  0  0  0  0
   -3.8621    0.6983    4.7347 H   0  0  0  0  0  0  0  0  0  0  0  0
   -2.0213   -2.9475    3.7772 H   0  0  0  0  0  0  0  0  0  0  0  0
   -1.3455   -1.9586    1.4941 H   0  0  0  0  0  0  0  0  0  0  0  0
   -0.5911   -1.8995   -2.0130 H   0  0  0  0  0  0  0  0  0  0  0  0
    1.2969   -3.3317   -1.9408 H   0  0  0  0  0  0  0  0  0  0  0  0
    4.8819   -2.8386    1.4182 H   0  0  0  0  0  0  0  0  0  0  0  0
    0.8882    0.1757    1.3908 H   0  0  0  0  0  0  0  0  0  0  0  0
  1  2  1  0
  2  3  1  0
  2  4  1  0
  4  5  1  0
  5  6  1  0
  6  7  2  0
  7  8  1  0
  8  9  1  0
  9 10  2  0
 10 11  1  0
 11 12  2  0
 12 13  1  0
 12 14  1  0
 14 15  2  0
  8 16  2  0
 16 17  1  0
 17 18  1  0
 18 19  2  0
 19 20  1  0
 20 21  2  0
 21 22  1  0
 22 23  2  0
 23 24  1  0
 24 25  3  0
 23 26  1  0
 26 27  1  0
 16  5  1  0
 27 17  2  0
 15  9  1  0
 26 20  1  0
  1 28  1  0
  1 29  1  0
  1 30  1  0
  2 31  1  0
  3 32  1  0
  3 33  1  0
  3 34  1  0
  4 35  1  0
  4 36  1  0
  6 37  1  0
 10 38  1  0
 11 39  1  0
 14 40  1  0
 15 41  1  0
 18 42  1  0
 19 43  1  0
 22 44  1  0
 27 45  1  0
M  END
$$$$
