@<TRIPOS>MOLECULE
*****
 45 48 0 0 0
SMALL
GASTEIGER

@<TRIPOS>ATOM
      1 C           1.1470    2.0367   -4.1932 C.3     1  UNL1       -0.0610
      2 C           0.6087    2.1476   -2.7444 C.3     1  UNL1       -0.0287
      3 C           1.6874    1.9264   -1.7491 C.3     1  UNL1       -0.0610
      4 C          -0.5817    1.2460   -2.6820 C.3     1  UNL1        0.0270
      5 N          -1.2920    1.1778   -1.4495 N.ar    1  UNL1       -0.3293
      6 C          -2.3362    1.8577   -1.0070 C.ar    1  UNL1        0.0971
      7 N          -2.8221    1.5870    0.1008 N.ar    1  UNL1       -0.2351
      8 C          -2.0044    0.5379    0.5794 C.ar    1  UNL1        0.0967
      9 C          -2.2514   -0.0490    1.8793 C.ar    1  UNL1        0.0026
     10 C          -2.9467    0.6577    2.8276 C.ar    1  UNL1       -0.0498
     11 C          -3.2478    0.0281    3.9901 C.ar    1  UNL1       -0.0258
     12 C          -3.0154   -1.1522    4.4292 C.ar    1  UNL1        0.1234
     13 F          -3.3736   -1.6715    5.6195 F       1  UNL1       -0.2055
     14 C          -2.2403   -1.9917    3.4546 C.ar    1  UNL1       -0.0258
     15 C          -1.9178   -1.3733    2.2432 C.ar    1  UNL1       -0.0498
     16 C          -1.0668    0.2925   -0.3742 C.ar    1  UNL1        0.0778
     17 C          -0.0123   -0.7260   -0.3407 C.ar    1  UNL1        0.0173
     18 C           0.1217   -1.6572   -1.1976 C.ar    1  UNL1       -0.0477
     19 C           1.2008   -2.6006   -1.2395 C.ar    1  UNL1       -0.0181
     20 C           2.1480   -2.3873   -0.2048 C.ar    1  UNL1        0.1385
     21 N           3.3108   -3.1450   -0.0698 N.ar    1  UNL1       -0.2348
     22 C           3.9230   -2.4901    1.0537 C.ar    1  UNL1        0.0643
     23 C           3.1510   -1.4965    1.4649 C.ar    1  UNL1        0.1438
     24 C           3.4755   -0.3235    2.3704 C.1     1  UNL1        0.1192
     25 N           3.6799    0.4120    2.9596 N.1     1  UNL1       -0.1893
     26 N           2.0222   -1.4606    0.6529 N.ar    1  UNL1       -0.2906
     27 C           0.9738   -0.5655    0.6770 C.ar    1  UNL1        0.0216
     28 H           2.1624    1.5567   -4.0859 H       1  UNL1        0.0233
     29 H           0.4669    1.3898   -4.7592 H       1  UNL1        0.0233
     30 H           1.1975    3.0793   -4.5655 H       1  UNL1        0.0233
     31 H           0.2252    3.1930   -2.5678 H       1  UNL1        0.0313
     32 H           2.0159    0.8899   -1.6147 H       1  UNL1        0.0233
     33 H           2.5589    2.5933   -2.0202 H       1  UNL1        0.0233
     34 H           1.4070    2.3191   -0.7277 H       1  UNL1        0.0233
     35 H          -0.3577    0.1901   -3.0291 H       1  UNL1        0.0495
     36 H          -1.2770    1.6833   -3.4969 H       1  UNL1        0.0495
     37 H          -2.7579    2.6943   -1.6582 H       1  UNL1        0.1029
     38 H          -3.2293    1.6957    2.6139 H       1  UNL1        0.0625
     39 H          -3.8621    0.6983    4.7347 H       1  UNL1        0.0646
     40 H          -2.0213   -2.9475    3.7772 H       1  UNL1        0.0646
     41 H          -1.3455   -1.9586    1.4941 H       1  UNL1        0.0625
     42 H          -0.5911   -1.8995   -2.0130 H       1  UNL1        0.0626
     43 H           1.2969   -3.3317   -1.9408 H       1  UNL1        0.0654
     44 H           4.8819   -2.8386    1.4182 H       1  UNL1        0.0859
     45 H           0.8882    0.1757    1.3908 H       1  UNL1        0.0820
@<TRIPOS>BOND
     1     1     2    1
     2     2     3    1
     3     2     4    1
     4     4     5    1
     5     5     6   ar
     6     6     7   ar
     7     7     8   ar
     8     8     9    1
     9     9    10   ar
    10    10    11   ar
    11    11    12   ar
    12    12    13    1
    13    12    14   ar
    14    14    15   ar
    15     8    16   ar
    16    16    17    1
    17    17    18   ar
    18    18    19   ar
    19    19    20   ar
    20    20    21   ar
    21    21    22   ar
    22    22    23   ar
    23    23    24    1
    24    24    25    3
    25    23    26   ar
    26    26    27   ar
    27    16     5   ar
    28    27    17   ar
    29    15     9   ar
    30    26    20   ar
    31     1    28    1
    32     1    29    1
    33     1    30    1
    34     2    31    1
    35     3    32    1
    36     3    33    1
    37     3    34    1
    38     4    35    1
    39     4    36    1
    40     6    37    1
    41    10    38    1
    42    11    39    1
    43    14    40    1
    44    15    41    1
    45    18    42    1
    46    19    43    1
    47    22    44    1
    48    27    45    1
