@<TRIPOS>MOLECULE
*****
 39 42 0 0 0
SMALL
GASTEIGER

@<TRIPOS>ATOM
      1 N           4.7150    0.7626    2.8092 N.1     1  UNL1       -0.1893
      2 C           3.7755    0.0211    2.8824 C.1     1  UNL1        0.1192
      3 C           2.6487   -0.8407    2.9793 C.ar    1  UNL1        0.1438
      4 C           2.4288   -1.9031    3.8250 C.ar    1  UNL1        0.0643
      5 N           1.2163   -2.4034    3.5370 N.ar    1  UNL1       -0.2348
      6 C           0.7001   -1.6678    2.5364 C.ar    1  UNL1        0.1385
      7 C          -0.5187   -1.7236    1.8481 C.ar    1  UNL1       -0.0181
      8 C          -0.7844   -0.8151    0.8613 C.ar    1  UNL1       -0.0477
      9 C           0.0938    0.1856    0.4813 C.ar    1  UNL1        0.0173
     10 C          -0.2484    1.1384   -0.5669 C.ar    1  UNL1        0.0780
     11 C          -0.5934    0.7145   -1.8379 C.ar    1  UNL1        0.0968
     12 C          -0.7095   -0.6537   -2.3603 C.ar    1  UNL1        0.0053
     13 C           0.3076   -1.5625   -2.3919 C.ar    1  UNL1       -0.0496
     14 C           0.1312   -2.8516   -2.9052 C.ar    1  UNL1       -0.0230
     15 C          -1.1036   -3.1895   -3.3830 C.ar    1  UNL1        0.1584
     16 F          -1.3592   -4.4376   -3.9067 F       1  UNL1       -0.2025
     17 C          -2.1819   -2.3097   -3.3789 C.ar    1  UNL1        0.1590
     18 F          -3.3984   -2.6741   -3.8635 F       1  UNL1       -0.2025
     19 C          -1.9217   -1.0639   -2.8573 C.ar    1  UNL1       -0.0143
     20 N          -0.8477    1.8369   -2.5690 N.ar    1  UNL1       -0.2351
     21 C          -0.6614    2.8975   -1.7606 C.ar    1  UNL1        0.0972
     22 N          -0.2904    2.4831   -0.5198 N.ar    1  UNL1       -0.3241
     23 C           0.0054    3.2914    0.6160 C.3     1  UNL1        0.0852
     24 C          -1.2756    3.4838    1.4168 C.3     1  UNL1        0.2569
     25 F          -1.0327    4.2737    2.5287 F       1  UNL1       -0.2073
     26 F          -1.7702    2.2602    1.8988 F       1  UNL1       -0.2073
     27 C           1.2840    0.2047    1.1822 C.ar    1  UNL1        0.0216
     28 N           1.5569   -0.6883    2.1616 N.ar    1  UNL1       -0.2906
     29 H           3.1487   -2.2366    4.5815 H       1  UNL1        0.0859
     30 H          -1.2052   -2.5123    2.1442 H       1  UNL1        0.0654
     31 H          -1.7448   -0.9018    0.3597 H       1  UNL1        0.0626
     32 H           1.2737   -1.2821   -2.0135 H       1  UNL1        0.0625
     33 H           0.9589   -3.5585   -2.9222 H       1  UNL1        0.0647
     34 H          -2.7419   -0.3573   -2.8420 H       1  UNL1        0.0654
     35 H          -0.7760    3.9496   -2.0068 H       1  UNL1        0.1029
     36 H           0.2623    4.3611    0.3226 H       1  UNL1        0.0548
     37 H           0.7382    2.8970    1.3245 H       1  UNL1        0.0548
     38 H          -2.0940    3.9290    0.8551 H       1  UNL1        0.1037
     39 H           2.0141    0.9428    0.9338 H       1  UNL1        0.0820
@<TRIPOS>BOND
     1     1     2    3
     2     2     3    1
     3     3     4   ar
     4     4     5   ar
     5     5     6   ar
     6     6     7   ar
     7     7     8   ar
     8     8     9   ar
     9     9    10    1
    10    10    11   ar
    11    11    12    1
    12    12    13   ar
    13    13    14   ar
    14    14    15   ar
    15    15    16    1
    16    15    17   ar
    17    17    18    1
    18    17    19   ar
    19    11    20   ar
    20    20    21   ar
    21    21    22   ar
    22    22    23    1
    23    23    24    1
    24    24    25    1
    25    24    26    1
    26     9    27   ar
    27    27    28   ar
    28    28     3   ar
    29    28     6   ar
    30    22    10   ar
    31    19    12   ar
    32     4    29    1
    33     7    30    1
    34     8    31    1
    35    13    32    1
    36    14    33    1
    37    19    34    1
    38    21    35    1
    39    23    36    1
    40    23    37    1
    41    24    38    1
    42    27    39    1
