
     RDKit          3D

 52 54  0  0  0  0  0  0  0  0999 V2000
   -2.7867   -1.1800   -0.1523 C   0  0  2  0  0  0  0  0  0  0  0  0
   -2.7375   -1.4944    1.3035 C   0  0  0  0  0  0  0  0  0  0  0  0
   -3.3903   -0.5205    2.0562 O   0  0  0  0  0  0  0  0  0  0  0  0
   -2.1589    0.0843   -0.4551 N   0  0  0  0  0  0  0  0  0  0  0  0
   -0.7895    0.3559   -0.1909 C   0  0  0  0  0  0  0  0  0  0  0  0
    0.0587   -0.5276    0.3599 N   0  0  0  0  0  0  0  0  0  0  0  0
    1.3409   -0.3240    0.6248 C   0  0  0  0  0  0  0  0  0  0  0  0
    2.1975   -1.2790    1.2097 N   0  0  0  0  0  0  0  0  0  0  0  0
    3.0119   -2.3054    0.7054 C   0  0  0  0  0  0  0  0  0  0  0  0
    3.7455   -3.0084    1.6148 C   0  0  0  0  0  0  0  0  0  0  0  0
    4.5720   -4.0328    1.2424 C   0  0  0  0  0  0  0  0  0  0  0  0
    4.6157   -4.3100   -0.1209 C   0  0  0  0  0  0  0  0  0  0  0  0
    3.8721   -3.5964   -1.0376 C   0  0  0  0  0  0  0  0  0  0  0  0
    4.0148   -4.0456   -2.7405 Cl  0  0  0  0  0  0  0  0  0  0  0  0
    3.0437   -2.5670   -0.6476 C   0  0  0  0  0  0  0  0  0  0  0  0
    1.8806    0.9116    0.3122 C   0  0  0  0  0  0  0  0  0  0  0  0
    3.0999    1.4694    0.4302 N   0  0  0  0  0  0  0  0  0  0  0  0
    3.0254    2.7258   -0.0523 C   0  0  0  0  0  0  0  0  0  0  0  0
    1.7576    2.9389   -0.4672 N   0  0  0  0  0  0  0  0  0  0  0  0
    1.3135    4.1658   -1.0355 C   0  0  0  0  0  0  0  0  0  0  0  0
    2.0695    5.3334   -0.3965 C   0  0  0  0  0  0  0  0  0  0  0  0
   -0.1478    4.4097   -0.9967 C   0  0  0  0  0  0  0  0  0  0  0  0
    1.0211    1.8396   -0.2578 C   0  0  0  0  0  0  0  0  0  0  0  0
   -0.2502    1.5499   -0.4881 N   0  0  0  0  0  0  0  0  0  0  0  0
   -4.1582   -1.2479   -0.7443 C   0  0  0  0  0  0  0  0  0  0  0  0
   -5.1329   -0.2987   -0.1146 C   0  0  0  0  0  0  0  0  0  0  0  0
   -4.7430   -2.6390   -0.7408 C   0  0  0  0  0  0  0  0  0  0  0  0
   -2.1689   -1.9599   -0.6783 H   0  0  0  0  0  0  0  0  0  0  0  0
   -3.1222   -2.5098    1.5040 H   0  0  0  0  0  0  0  0  0  0  0  0
   -1.6821   -1.4967    1.6400 H   0  0  0  0  0  0  0  0  0  0  0  0
   -3.1464    0.3718    1.7437 H   0  0  0  0  0  0  0  0  0  0  0  0
   -2.7362    0.8370   -0.8889 H   0  0  0  0  0  0  0  0  0  0  0  0
    2.0892   -1.0378    2.2151 H   0  0  0  0  0  0  0  0  0  0  0  0
    3.7024   -2.7786    2.6795 H   0  0  0  0  0  0  0  0  0  0  0  0
    5.1729   -4.6198    1.9201 H   0  0  0  0  0  0  0  0  0  0  0  0
    5.2618   -5.1144   -0.4403 H   0  0  0  0  0  0  0  0  0  0  0  0
    2.4609   -2.0082   -1.3660 H   0  0  0  0  0  0  0  0  0  0  0  0
    3.9081    3.3807   -0.0593 H   0  0  0  0  0  0  0  0  0  0  0  0
    1.6670    4.1744   -2.1070 H   0  0  0  0  0  0  0  0  0  0  0  0
    1.7319    6.3043   -0.7964 H   0  0  0  0  0  0  0  0  0  0  0  0
    3.1377    5.1852   -0.7024 H   0  0  0  0  0  0  0  0  0  0  0  0
    2.0334    5.2872    0.7065 H   0  0  0  0  0  0  0  0  0  0  0  0
   -0.6806    3.9091   -0.1715 H   0  0  0  0  0  0  0  0  0  0  0  0
   -0.3021    5.5000   -0.8499 H   0  0  0  0  0  0  0  0  0  0  0  0
   -0.5978    4.1806   -2.0005 H   0  0  0  0  0  0  0  0  0  0  0  0
   -4.0744   -0.9369   -1.8156 H   0  0  0  0  0  0  0  0  0  0  0  0
   -4.7248    0.7269   -0.0277 H   0  0  0  0  0  0  0  0  0  0  0  0
   -6.0364   -0.2299   -0.7575 H   0  0  0  0  0  0  0  0  0  0  0  0
   -5.4930   -0.6362    0.8770 H   0  0  0  0  0  0  0  0  0  0  0  0
   -4.9572   -2.9923    0.3010 H   0  0  0  0  0  0  0  0  0  0  0  0
   -5.7141   -2.5992   -1.2680 H   0  0  0  0  0  0  0  0  0  0  0  0
   -4.0745   -3.3450   -1.2827 H   0  0  0  0  0  0  0  0  0  0  0  0
  1  2  1  0
  2  3  1  0
  1  4  1  0
  4  5  1  0
  5  6  2  0
  6  7  1  0
  7  8  1  0
  8  9  1  0
  9 10  2  0
 10 11  1  0
 11 12  2  0
 12 13  1  0
 13 14  1  0
 13 15  2  0
  7 16  2  0
 16 17  1  0
 17 18  2  0
 18 19  1  0
 19 20  1  0
 20 21  1  0
 20 22  1  0
 19 23  1  0
 23 24  2  0
  1 25  1  0
 25 26  1  0
 25 27  1  0
 24  5  1  0
 15  9  1  0
 23 16  1  0
  1 28  1  6
  2 29  1  0
  2 30  1  0
  3 31  1  0
  4 32  1  0
  8 33  1  0
 10 34  1  0
 11 35  1  0
 12 36  1  0
 15 37  1  0
 18 38  1  0
 20 39  1  0
 21 40  1  0
 21 41  1  0
 21 42  1  0
 22 43  1  0
 22 44  1  0
 22 45  1  0
 25 46  1  0
 26 47  1  0
 26 48  1  0
 26 49  1  0
 27 50  1  0
 27 51  1  0
 27 52  1  0
M  END
$$$$
