@<TRIPOS>MOLECULE
*****
 50 52 0 0 0
SMALL
GASTEIGER

@<TRIPOS>ATOM
      1 O           8.6857   -0.3219    0.6147 O.2     1  UNL1       -0.2687
      2 C           8.1546    0.2948   -0.3190 C.2     1  UNL1        0.2594
      3 C           6.7140    0.2705   -0.4721 C.2     1  UNL1        0.0041
      4 C           5.9936   -0.4162    0.3969 C.2     1  UNL1       -0.0313
      5 C           4.5434   -0.4463    0.2506 C.ar    1  UNL1        0.0641
      6 C           3.7441   -1.1466    1.1283 C.ar    1  UNL1       -0.0345
      7 C           2.3791   -1.1519    0.9583 C.ar    1  UNL1       -0.0370
      8 C           1.7739   -0.4695   -0.0769 C.ar    1  UNL1        0.0517
      9 N           0.3522   -0.4769   -0.2514 N.am    1  UNL1       -0.2837
     10 C          -0.4637    0.4860    0.3492 C.2     1  UNL1        0.2250
     11 O           0.1437    1.3647    1.0546 O.2     1  UNL1       -0.2748
     12 C          -1.9301    0.5974    0.2577 C.3     1  UNL1        0.0648
     13 C          -2.2707    0.9426   -1.1550 C.3     1  UNL1       -0.0125
     14 C          -3.7455    1.0798   -1.3068 C.ar    1  UNL1       -0.0463
     15 C          -4.5699    0.0615   -1.7185 C.ar    1  UNL1       -0.0585
     16 C          -5.9241    0.2903   -1.8126 C.ar    1  UNL1       -0.0615
     17 C          -6.4847    1.5191   -1.5048 C.ar    1  UNL1       -0.0617
     18 C          -5.6586    2.5431   -1.0917 C.ar    1  UNL1       -0.0615
     19 C          -4.3131    2.2980   -1.0034 C.ar    1  UNL1       -0.0585
     20 C          -2.6723   -0.5298    0.8365 C.ar    1  UNL1       -0.0352
     21 C          -2.7279   -1.7970    0.3031 C.ar    1  UNL1       -0.0578
     22 C          -3.4380   -2.8333    0.9027 C.ar    1  UNL1       -0.0615
     23 C          -4.1237   -2.6162    2.0767 C.ar    1  UNL1       -0.0617
     24 C          -4.0947   -1.3631    2.6437 C.ar    1  UNL1       -0.0615
     25 C          -3.3875   -0.3666    2.0296 C.ar    1  UNL1       -0.0578
     26 C           2.6069    0.2183   -0.9327 C.ar    1  UNL1        0.0494
     27 N           3.9378    0.2167   -0.7574 N.ar    1  UNL1       -0.2537
     28 N           8.9652    1.0127   -1.2199 N.am    1  UNL1       -0.1940
     29 O          10.3085    1.0829   -1.1437 O.3     1  UNL1       -0.2949
     30 H           6.2735    0.8160   -1.2941 H       1  UNL1        0.0671
     31 H           6.4253   -0.9645    1.2217 H       1  UNL1        0.0640
     32 H           4.1778   -1.7044    1.9665 H       1  UNL1        0.0639
     33 H           1.7467   -1.6950    1.6374 H       1  UNL1        0.0637
     34 H          -0.0501   -1.2069   -0.8343 H       1  UNL1        0.1549
     35 H          -2.2235    1.5109    0.8637 H       1  UNL1        0.0446
     36 H          -1.8576    0.2263   -1.8941 H       1  UNL1        0.0324
     37 H          -1.8249    1.9226   -1.3861 H       1  UNL1        0.0324
     38 H          -4.1617   -0.8892   -1.9701 H       1  UNL1        0.0620
     39 H          -6.5959   -0.5116   -2.1392 H       1  UNL1        0.0618
     40 H          -7.5431    1.6894   -1.5810 H       1  UNL1        0.0618
     41 H          -6.0715    3.5204   -0.8430 H       1  UNL1        0.0618
     42 H          -3.6562    3.1000   -0.6786 H       1  UNL1        0.0620
     43 H          -2.2188   -2.0172   -0.6161 H       1  UNL1        0.0620
     44 H          -3.4708   -3.8279    0.4679 H       1  UNL1        0.0618
     45 H          -4.6888   -3.3844    2.5814 H       1  UNL1        0.0618
     46 H          -4.6321   -1.1604    3.5793 H       1  UNL1        0.0618
     47 H          -3.3715    0.6265    2.4905 H       1  UNL1        0.0620
     48 H           2.1716    0.7606   -1.7494 H       1  UNL1        0.0849
     49 H           8.5067    1.5246   -1.9972 H       1  UNL1        0.1825
     50 H          10.5667    1.3211   -0.2188 H       1  UNL1        0.2414
@<TRIPOS>BOND
     1     1     2    2
     2     2     3    1
     3     3     4    2
     4     4     5    1
     5     5     6   ar
     6     6     7   ar
     7     7     8   ar
     8     8     9    1
     9     9    10   am
    10    10    11    2
    11    10    12    1
    12    12    13    1
    13    13    14    1
    14    14    15   ar
    15    15    16   ar
    16    16    17   ar
    17    17    18   ar
    18    18    19   ar
    19    12    20    1
    20    20    21   ar
    21    21    22   ar
    22    22    23   ar
    23    23    24   ar
    24    24    25   ar
    25     8    26   ar
    26    26    27   ar
    27     2    28   am
    28    28    29    1
    29    27     5   ar
    30    19    14   ar
    31    25    20   ar
    32     3    30    1
    33     4    31    1
    34     6    32    1
    35     7    33    1
    36     9    34    1
    37    12    35    1
    38    13    36    1
    39    13    37    1
    40    15    38    1
    41    16    39    1
    42    17    40    1
    43    18    41    1
    44    19    42    1
    45    21    43    1
    46    22    44    1
    47    23    45    1
    48    24    46    1
    49    25    47    1
    50    26    48    1
    51    28    49    1
    52    29    50    1
