@<TRIPOS>MOLECULE
*****
 26 25 0 0 0
SMALL
GASTEIGER

@<TRIPOS>ATOM
      1 N          -3.8811   -0.8119    0.9778 N.3     1  CYS1       -0.3177
      2 CA         -2.8797    0.1667    0.5863 C.3     1  CYS1        0.1131
      3 CB         -1.7281   -0.6434    0.0433 C.3     1  CYS1        0.0295
      4 SG         -0.3455    0.3671   -0.5137 S.3     1  CYS1       -0.0910
      5 SG          1.1413   -0.9785   -1.2292 S.3     1  CYS1       -0.0910
      6 CB          2.2397   -1.4259    0.1366 C.3     1  CYS1        0.0295
      7 CA          2.9976   -0.1857    0.5422 C.3     1  CYS1        0.1131
      8 N           2.0739    0.8401    0.9667 N.3     1  CYS1       -0.3177
      9 C           3.7789    0.2852   -0.6352 C.2     1  CYS1        0.3226
     10 O           3.8501    1.4178   -1.4063 O.3     1  CYS1       -0.4795
     11 OXT         4.5584   -0.6481   -0.9556 O.2     1  CYS1       -0.2492
     12 C          -3.4730    1.0585   -0.4325 C.2     1  CYS1        0.3226
     13 O          -2.8775    2.1131   -1.0746 O.3     1  CYS1       -0.4795
     14 OXT        -4.6690    0.8238   -0.7510 O.2     1  CYS1       -0.2492
     15 H1         -3.3639   -1.4941    1.6034 H       1  CYS1        0.1190
     16 H2         -4.0894   -1.3739    0.1209 H       1  CYS1        0.1190
     17 HA         -2.6113    0.7648    1.4634 H       1  CYS1        0.0582
     18 HB1        -1.3916   -1.3418    0.8118 H       1  CYS1        0.0405
     19 HB2        -2.0942   -1.2269   -0.8239 H       1  CYS1        0.0405
     20 HB1         2.9723   -2.2043   -0.1619 H       1  CYS1        0.0405
     21 HB2         1.6693   -1.8313    1.0038 H       1  CYS1        0.0405
     22 HA          3.6751   -0.4354    1.3796 H       1  CYS1        0.0582
     23 H1          1.8134    1.5027    0.2067 H       1  CYS1        0.1190
     24 H2          1.2450    0.5099    1.4680 H       1  CYS1        0.1190
     25 H           4.7478    1.7704   -1.6922 H       1  CYS1        0.2951
     26 H          -3.3583    2.9812   -1.2278 H       1  CYS1        0.2951
@<TRIPOS>BOND
     1     1     2    1
     2     2     3    1
     3     3     4    1
     4     4     5    1
     5     5     6    1
     6     6     7    1
     7     7     8    1
     8     7     9    1
     9     9    10    1
    10     9    11    2
    11     2    12    1
    12    12    13    1
    13    12    14    2
    14     1    15    1
    15     1    16    1
    16     2    17    1
    17     3    18    1
    18     3    19    1
    19     6    20    1
    20     6    21    1
    21     7    22    1
    22     8    23    1
    23     8    24    1
    24    10    25    1
    25    13    26    1
