
     RDKit          3D

 26 25  0  0  0  0  0  0  0  0999 V2000
   -3.8811   -0.8119    0.9778 N   0  0  0  0  0  0  0  0  0  0  0  0
   -2.8797    0.1667    0.5863 C   0  0  1  0  0  0  0  0  0  0  0  0
   -1.7281   -0.6434    0.0433 C   0  0  0  0  0  0  0  0  0  0  0  0
   -0.3455    0.3671   -0.5137 S   0  0  0  0  0  0  0  0  0  0  0  0
    1.1413   -0.9785   -1.2292 S   0  0  0  0  0  0  0  0  0  0  0  0
    2.2397   -1.4259    0.1366 C   0  0  0  0  0  0  0  0  0  0  0  0
    2.9976   -0.1857    0.5422 C   0  0  2  0  0  0  0  0  0  0  0  0
    2.0739    0.8401    0.9667 N   0  0  0  0  0  0  0  0  0  0  0  0
    3.7789    0.2852   -0.6352 C   0  0  0  0  0  0  0  0  0  0  0  0
    3.8501    1.4178   -1.4063 O   0  0  0  0  0  0  0  0  0  0  0  0
    4.5584   -0.6481   -0.9556 O   0  0  0  0  0  0  0  0  0  0  0  0
   -3.4730    1.0585   -0.4325 C   0  0  0  0  0  0  0  0  0  0  0  0
   -2.8775    2.1131   -1.0746 O   0  0  0  0  0  0  0  0  0  0  0  0
   -4.6690    0.8238   -0.7510 O   0  0  0  0  0  0  0  0  0  0  0  0
   -3.3639   -1.4941    1.6034 H   0  0  0  0  0  0  0  0  0  0  0  0
   -4.0894   -1.3739    0.1209 H   0  0  0  0  0  0  0  0  0  0  0  0
   -2.6113    0.7648    1.4634 H   0  0  0  0  0  0  0  0  0  0  0  0
   -1.3916   -1.3418    0.8118 H   0  0  0  0  0  0  0  0  0  0  0  0
   -2.0942   -1.2269   -0.8239 H   0  0  0  0  0  0  0  0  0  0  0  0
    2.9723   -2.2043   -0.1619 H   0  0  0  0  0  0  0  0  0  0  0  0
    1.6693   -1.8313    1.0038 H   0  0  0  0  0  0  0  0  0  0  0  0
    3.6751   -0.4354    1.3796 H   0  0  0  0  0  0  0  0  0  0  0  0
    1.8134    1.5027    0.2067 H   0  0  0  0  0  0  0  0  0  0  0  0
    1.2450    0.5099    1.4680 H   0  0  0  0  0  0  0  0  0  0  0  0
    4.7478    1.7704   -1.6922 H   0  0  0  0  0  0  0  0  0  0  0  0
   -3.3583    2.9812   -1.2278 H   0  0  0  0  0  0  0  0  0  0  0  0
  1  2  1  0
  2  3  1  0
  3  4  1  0
  4  5  1  0
  5  6  1  0
  6  7  1  0
  7  8  1  0
  7  9  1  0
  9 10  1  0
  9 11  2  0
  2 12  1  0
 12 13  1  0
 12 14  2  0
  1 15  1  0
  1 16  1  0
  2 17  1  1
  3 18  1  0
  3 19  1  0
  6 20  1  0
  6 21  1  0
  7 22  1  1
  8 23  1  0
  8 24  1  0
 10 25  1  0
 13 26  1  0
M  END
$$$$
