@<TRIPOS>MOLECULE
*****
 58 61 0 0 0
SMALL
GASTEIGER

@<TRIPOS>ATOM
      1 O           0.6791    2.2794   -0.5235 O.2     1  UNL1       -0.2449
      2 C           0.3946    1.0679   -0.4850 C.2     1  UNL1        0.3398
      3 O           1.3158    0.1533   -0.9081 O.3     1  UNL1       -0.4541
      4 C           2.5970    0.4552   -1.3996 C.3     1  UNL1        0.1400
      5 C           2.6998   -0.1980   -2.7748 C.3     1  UNL1       -0.0120
      6 C           3.0049   -1.6566   -2.4862 C.3     1  UNL1       -0.0461
      7 C           3.1843   -1.7633   -0.9855 C.3     1  UNL1       -0.0121
      8 C           3.6833   -0.3470   -0.6663 C.3     1  UNL1        0.1369
      9 O           4.8651   -0.1626   -1.3599 O.3     1  UNL1       -0.4852
     10 C           6.0792    0.2454   -0.9083 C.ar    1  UNL1        0.1213
     11 C           7.1279    0.3579   -1.7962 C.ar    1  UNL1       -0.0165
     12 C           8.3939    0.7756   -1.3669 C.ar    1  UNL1       -0.0167
     13 C           8.6172    1.0805   -0.0598 C.ar    1  UNL1        0.1171
     14 O           9.8566    1.4914    0.3716 O.3     1  UNL1       -0.5068
     15 C           7.5694    0.9729    0.8534 C.ar    1  UNL1       -0.0167
     16 C           6.3118    0.5553    0.4124 C.ar    1  UNL1       -0.0165
     17 C          -0.8926    0.5989   -0.0014 C.ar    1  UNL1        0.0659
     18 C          -1.2037   -0.7311    0.0404 C.ar    1  UNL1       -0.0053
     19 C          -2.3991   -1.2225    0.4852 C.ar    1  UNL1        0.1320
     20 O          -2.7045   -2.5861    0.5227 O.3     1  UNL1       -0.5059
     21 C          -3.3941   -0.3401    0.9349 C.ar    1  UNL1        0.1050
     22 C          -4.6195   -0.8295    1.5144 C.2     1  UNL1        0.2044
     23 O          -4.5200   -2.0251    2.0119 O.2     1  UNL1       -0.2863
     24 C          -5.9053   -0.2200    1.6389 C.ar    1  UNL1        0.0778
     25 C          -6.5667   -0.4776    2.8605 C.ar    1  UNL1        0.1285
     26 O          -5.9690   -1.2545    3.8544 O.3     1  UNL1       -0.5060
     27 C          -7.8101    0.0311    3.0939 C.ar    1  UNL1       -0.0194
     28 C          -8.4633    0.8113    2.1503 C.ar    1  UNL1       -0.0575
     29 C          -7.8341    1.0666    0.9572 C.ar    1  UNL1       -0.0468
     30 C          -6.5573    0.5493    0.6980 C.ar    1  UNL1        0.0731
     31 C          -6.0650    0.6874   -0.6572 C.2     1  UNL1        0.3376
     32 O          -6.6634    1.5052   -1.4301 O.2     1  UNL1       -0.2451
     33 O          -4.9929   -0.0072   -1.1954 O.3     1  UNL1       -0.4771
     34 C          -3.1015    1.0079    0.9032 C.ar    1  UNL1        0.1320
     35 O          -4.0500    1.9151    1.3439 O.3     1  UNL1       -0.5059
     36 C          -1.8607    1.4736    0.4380 C.ar    1  UNL1       -0.0053
     37 H           2.8356    1.5205   -1.4289 H       1  UNL1        0.0771
     38 H           3.5427    0.2651   -3.3274 H       1  UNL1        0.0302
     39 H           1.7386   -0.1414   -3.3209 H       1  UNL1        0.0302
     40 H           2.2061   -2.3290   -2.8585 H       1  UNL1        0.0268
     41 H           3.9857   -1.9251   -2.9439 H       1  UNL1        0.0268
     42 H           3.9311   -2.5250   -0.7030 H       1  UNL1        0.0302
     43 H           2.2199   -1.9180   -0.4600 H       1  UNL1        0.0302
     44 H           3.6921   -0.1450    0.3966 H       1  UNL1        0.0770
     45 H           6.9979    0.1257   -2.8485 H       1  UNL1        0.0655
     46 H           9.1982    0.8532   -2.0940 H       1  UNL1        0.0655
     47 H          10.6613    1.2637   -0.1848 H       1  UNL1        0.2921
     48 H           7.7497    1.2154    1.8893 H       1  UNL1        0.0655
     49 H           5.5006    0.4690    1.1028 H       1  UNL1        0.0655
     50 H          -0.4657   -1.4466   -0.2970 H       1  UNL1        0.0662
     51 H          -2.6420   -3.0651   -0.3794 H       1  UNL1        0.2922
     52 H          -5.0868   -1.0152    4.2805 H       1  UNL1        0.2922
     53 H          -8.3498   -0.1490    4.0284 H       1  UNL1        0.0654
     54 H          -9.4420    1.2224    2.3189 H       1  UNL1        0.0619
     55 H          -8.3031    1.6648    0.2024 H       1  UNL1        0.0626
     56 H          -4.9207   -0.0687   -2.2039 H       1  UNL1        0.2954
     57 H          -4.1667    2.1582    2.3142 H       1  UNL1        0.2922
     58 H          -1.6895    2.5498    0.4363 H       1  UNL1        0.0662
@<TRIPOS>BOND
     1     1     2    2
     2     2     3    1
     3     3     4    1
     4     4     5    1
     5     5     6    1
     6     6     7    1
     7     7     8    1
     8     8     9    1
     9     9    10    1
    10    10    11   ar
    11    11    12   ar
    12    12    13   ar
    13    13    14    1
    14    13    15   ar
    15    15    16   ar
    16     2    17    1
    17    17    18   ar
    18    18    19   ar
    19    19    20    1
    20    19    21   ar
    21    21    22    1
    22    22    23    2
    23    22    24    1
    24    24    25   ar
    25    25    26    1
    26    25    27   ar
    27    27    28   ar
    28    28    29   ar
    29    29    30   ar
    30    30    31    1
    31    31    32    2
    32    31    33    1
    33    21    34   ar
    34    34    35    1
    35    34    36   ar
    36     8     4    1
    37    16    10   ar
    38    36    17   ar
    39    30    24   ar
    40     4    37    1
    41     5    38    1
    42     5    39    1
    43     6    40    1
    44     6    41    1
    45     7    42    1
    46     7    43    1
    47     8    44    1
    48    11    45    1
    49    12    46    1
    50    14    47    1
    51    15    48    1
    52    16    49    1
    53    18    50    1
    54    20    51    1
    55    26    52    1
    56    27    53    1
    57    28    54    1
    58    29    55    1
    59    33    56    1
    60    35    57    1
    61    36    58    1
