
     RDKit          3D

 63 65  0  0  0  0  0  0  0  0999 V2000
    4.7039   -4.2881    1.7520 C   0  0  0  0  0  0  0  0  0  0  0  0
    4.7794   -3.1173    0.8347 C   0  0  0  0  0  0  0  0  0  0  0  0
    3.4658   -2.3354    0.7575 C   0  0  0  0  0  0  0  0  0  0  0  0
    3.7310   -0.9985   -0.3613 S   0  0  0  0  0  6  0  0  0  0  0  0
    4.8734   -0.1736    0.1561 O   0  0  0  0  0  0  0  0  0  0  0  0
    4.1537   -1.5727   -1.6870 O   0  0  0  0  0  0  0  0  0  0  0  0
    2.3927    0.0027   -0.5948 N   0  0  0  0  0  0  0  0  0  0  0  0
    1.9045    0.6800    0.5427 C   0  0  0  0  0  0  0  0  0  0  0  0
    0.4317    0.7101    0.6898 C   0  0  0  0  0  0  0  0  0  0  0  0
   -0.2801    1.1643   -0.5866 C   0  0  0  0  0  0  0  0  0  0  0  0
   -1.7069    0.7842   -0.5277 C   0  0  0  0  0  0  0  0  0  0  0  0
   -2.1286   -0.5527   -0.3882 N   0  0  0  0  0  0  0  0  0  0  0  0
   -2.0185   -1.6698   -1.2354 C   0  0  0  0  0  0  0  0  0  0  0  0
   -1.4870   -1.6056   -2.3317 O   0  0  0  0  0  0  0  0  0  0  0  0
   -2.5440   -3.0087   -0.8562 C   0  0  0  0  0  0  0  0  0  0  0  0
   -3.5679   -3.4657   -1.6737 C   0  0  0  0  0  0  0  0  0  0  0  0
   -4.1427   -4.6857   -1.4308 C   0  0  0  0  0  0  0  0  0  0  0  0
   -3.6876   -5.4332   -0.3750 C   0  0  0  0  0  0  0  0  0  0  0  0
   -4.4116   -6.9999   -0.0468 Cl  0  0  0  0  0  0  0  0  0  0  0  0
   -2.6715   -4.9717    0.4305 C   0  0  0  0  0  0  0  0  0  0  0  0
   -2.0831   -3.7348    0.1905 C   0  0  0  0  0  0  0  0  0  0  0  0
   -0.7972   -3.1176    1.1812 Cl  0  0  0  0  0  0  0  0  0  0  0  0
   -0.1032    2.6664   -0.6343 C   0  0  0  0  0  0  0  0  0  0  0  0
   -0.6223    3.5065    0.4424 C   0  0  0  0  0  0  0  0  0  0  0  0
   -0.2471    4.9721    0.1173 C   0  0  0  0  0  0  0  0  0  0  0  0
   -1.4139    5.8995    0.3183 C   0  0  0  0  0  0  0  0  0  0  0  0
   -2.1276    5.5624    1.6095 C   0  0  0  0  0  0  0  0  0  0  0  0
   -2.5172    4.1012    1.6043 C   0  0  0  0  0  0  0  0  0  0  0  0
   -2.0330    3.4442    0.4742 O   0  0  0  0  0  0  0  0  0  0  0  0
    0.4303    0.5998   -1.7869 C   0  0  0  0  0  0  0  0  0  0  0  0
    1.3423   -0.5472   -1.3868 C   0  0  0  0  0  0  0  0  0  0  0  0
    4.8093   -5.2403    1.1635 H   0  0  0  0  0  0  0  0  0  0  0  0
    3.8398   -4.3106    2.4134 H   0  0  0  0  0  0  0  0  0  0  0  0
    5.6346   -4.2675    2.3893 H   0  0  0  0  0  0  0  0  0  0  0  0
    5.0396   -3.4534   -0.1976 H   0  0  0  0  0  0  0  0  0  0  0  0
    5.5941   -2.3989    1.1255 H   0  0  0  0  0  0  0  0  0  0  0  0
    3.3308   -1.8912    1.7844 H   0  0  0  0  0  0  0  0  0  0  0  0
    2.6248   -2.9798    0.5075 H   0  0  0  0  0  0  0  0  0  0  0  0
    2.3059    0.1144    1.4423 H   0  0  0  0  0  0  0  0  0  0  0  0
    2.3752    1.7019    0.6788 H   0  0  0  0  0  0  0  0  0  0  0  0
    0.1594    1.4305    1.4764 H   0  0  0  0  0  0  0  0  0  0  0  0
    0.0279   -0.2643    1.0370 H   0  0  0  0  0  0  0  0  0  0  0  0
   -2.2858    1.2779   -1.4003 H   0  0  0  0  0  0  0  0  0  0  0  0
   -2.2155    1.3326    0.3469 H   0  0  0  0  0  0  0  0  0  0  0  0
   -2.6468   -0.8323    0.5455 H   0  0  0  0  0  0  0  0  0  0  0  0
   -3.9354   -2.8684   -2.5219 H   0  0  0  0  0  0  0  0  0  0  0  0
   -4.9481   -5.0922   -2.0396 H   0  0  0  0  0  0  0  0  0  0  0  0
   -2.2956   -5.5491    1.2736 H   0  0  0  0  0  0  0  0  0  0  0  0
   -0.5263    2.9729   -1.6469 H   0  0  0  0  0  0  0  0  0  0  0  0
    1.0045    2.8298   -0.7875 H   0  0  0  0  0  0  0  0  0  0  0  0
   -0.2705    3.3542    1.4601 H   0  0  0  0  0  0  0  0  0  0  0  0
    0.5993    5.3113    0.7236 H   0  0  0  0  0  0  0  0  0  0  0  0
    0.0327    5.0331   -0.9445 H   0  0  0  0  0  0  0  0  0  0  0  0
   -1.0306    6.9206    0.3928 H   0  0  0  0  0  0  0  0  0  0  0  0
   -2.1291    5.8534   -0.5293 H   0  0  0  0  0  0  0  0  0  0  0  0
   -3.0128    6.2223    1.7184 H   0  0  0  0  0  0  0  0  0  0  0  0
   -1.4511    5.7702    2.4583 H   0  0  0  0  0  0  0  0  0  0  0  0
   -2.1819    3.6263    2.5462 H   0  0  0  0  0  0  0  0  0  0  0  0
   -3.6202    4.0296    1.5751 H   0  0  0  0  0  0  0  0  0  0  0  0
    1.2030    1.4150   -2.0818 H   0  0  0  0  0  0  0  0  0  0  0  0
   -0.1053    0.4348   -2.6814 H   0  0  0  0  0  0  0  0  0  0  0  0
    1.6981   -1.0710   -2.2979 H   0  0  0  0  0  0  0  0  0  0  0  0
    0.7585   -1.2271   -0.7457 H   0  0  0  0  0  0  0  0  0  0  0  0
  1  2  1  0
  2  3  1  0
  3  4  1  0
  4  5  2  0
  4  6  2  0
  4  7  1  0
  7  8  1  0
  8  9  1  0
  9 10  1  0
 10 11  1  0
 11 12  1  0
 12 13  1  0
 13 14  2  0
 13 15  1  0
 15 16  2  0
 16 17  1  0
 17 18  2  0
 18 19  1  0
 18 20  1  0
 20 21  2  0
 21 22  1  0
 10 23  1  0
 23 24  1  0
 24 25  1  0
 25 26  1  0
 26 27  1  0
 27 28  1  0
 28 29  1  0
 10 30  1  0
 30 31  1  0
 31  7  1  0
 21 15  1  0
 29 24  1  0
  1 32  1  0
  1 33  1  0
  1 34  1  0
  2 35  1  0
  2 36  1  0
  3 37  1  0
  3 38  1  0
  8 39  1  0
  8 40  1  0
  9 41  1  0
  9 42  1  0
 11 43  1  0
 11 44  1  0
 12 45  1  0
 16 46  1  0
 17 47  1  0
 20 48  1  0
 23 49  1  0
 23 50  1  0
 24 51  1  0
 25 52  1  0
 25 53  1  0
 26 54  1  0
 26 55  1  0
 27 56  1  0
 27 57  1  0
 28 58  1  0
 28 59  1  0
 30 60  1  0
 30 61  1  0
 31 62  1  0
 31 63  1  0
M  END
$$$$
