@<TRIPOS>MOLECULE
*****
 63 65 0 0 0
SMALL
GASTEIGER

@<TRIPOS>ATOM
      1 C           4.7039   -4.2881    1.7520 C.3     1  UNL1       -0.0638
      2 C           4.7794   -3.1173    0.8347 C.3     1  UNL1       -0.0350
      3 C           3.4658   -2.3354    0.7575 C.3     1  UNL1        0.0817
      4 S           3.7310   -0.9985   -0.3613 S.O2    1  UNL1        0.0318
      5 O           4.8734   -0.1736    0.1561 O.2     1  UNL1       -0.1580
      6 O           4.1537   -1.5727   -1.6870 O.2     1  UNL1       -0.1580
      7 N           2.3927    0.0027   -0.5948 N.3     1  UNL1       -0.1811
      8 C           1.9045    0.6800    0.5427 C.3     1  UNL1        0.0207
      9 C           0.4317    0.7101    0.6898 C.3     1  UNL1       -0.0313
     10 C          -0.2801    1.1643   -0.5866 C.3     1  UNL1       -0.0089
     11 C          -1.7069    0.7842   -0.5277 C.3     1  UNL1        0.0177
     12 N          -2.1286   -0.5527   -0.3882 N.am    1  UNL1       -0.3108
     13 C          -2.0185   -1.6698   -1.2354 C.2     1  UNL1        0.2455
     14 O          -1.4870   -1.6056   -2.3317 O.2     1  UNL1       -0.2702
     15 C          -2.5440   -3.0087   -0.8562 C.ar    1  UNL1        0.0550
     16 C          -3.5679   -3.4657   -1.6737 C.ar    1  UNL1       -0.0468
     17 C          -4.1427   -4.6857   -1.4308 C.ar    1  UNL1       -0.0426
     18 C          -3.6876   -5.4332   -0.3750 C.ar    1  UNL1        0.0424
     19 CL         -4.4116   -6.9999   -0.0468 Cl      1  UNL1       -0.0835
     20 C          -2.6715   -4.9717    0.4305 C.ar    1  UNL1       -0.0243
     21 C          -2.0831   -3.7348    0.1905 C.ar    1  UNL1        0.0544
     22 CL         -0.7972   -3.1176    1.1812 Cl      1  UNL1       -0.0827
     23 C          -0.1032    2.6664   -0.6343 C.3     1  UNL1       -0.0194
     24 C          -0.6223    3.5065    0.4424 C.3     1  UNL1        0.0593
     25 C          -0.2471    4.9721    0.1173 C.3     1  UNL1       -0.0265
     26 C          -1.4139    5.8995    0.3183 C.3     1  UNL1       -0.0486
     27 C          -2.1276    5.5624    1.6095 C.3     1  UNL1       -0.0294
     28 C          -2.5172    4.1012    1.6043 C.3     1  UNL1        0.0480
     29 O          -2.0330    3.4442    0.4742 O.3     1  UNL1       -0.3765
     30 C           0.4303    0.5998   -1.7869 C.3     1  UNL1       -0.0313
     31 C           1.3423   -0.5472   -1.3868 C.3     1  UNL1        0.0207
     32 H           4.8093   -5.2403    1.1635 H       1  UNL1        0.0230
     33 H           3.8398   -4.3106    2.4134 H       1  UNL1        0.0230
     34 H           5.6346   -4.2675    2.3893 H       1  UNL1        0.0230
     35 H           5.0396   -3.4534   -0.1976 H       1  UNL1        0.0279
     36 H           5.5941   -2.3989    1.1255 H       1  UNL1        0.0279
     37 H           3.3308   -1.8912    1.7844 H       1  UNL1        0.0515
     38 H           2.6248   -2.9798    0.5075 H       1  UNL1        0.0515
     39 H           2.3059    0.1144    1.4423 H       1  UNL1        0.0444
     40 H           2.3752    1.7019    0.6788 H       1  UNL1        0.0444
     41 H           0.1594    1.4305    1.4764 H       1  UNL1        0.0284
     42 H           0.0279   -0.2643    1.0370 H       1  UNL1        0.0284
     43 H          -2.2858    1.2779   -1.4003 H       1  UNL1        0.0467
     44 H          -2.2155    1.3326    0.3469 H       1  UNL1        0.0467
     45 H          -2.6468   -0.8323    0.5455 H       1  UNL1        0.1490
     46 H          -3.9354   -2.8684   -2.5219 H       1  UNL1        0.0626
     47 H          -4.9481   -5.0922   -2.0396 H       1  UNL1        0.0632
     48 H          -2.2956   -5.5491    1.2736 H       1  UNL1        0.0647
     49 H          -0.5263    2.9729   -1.6469 H       1  UNL1        0.0296
     50 H           1.0045    2.8298   -0.7875 H       1  UNL1        0.0296
     51 H          -0.2705    3.3542    1.4601 H       1  UNL1        0.0596
     52 H           0.5993    5.3113    0.7236 H       1  UNL1        0.0290
     53 H           0.0327    5.0331   -0.9445 H       1  UNL1        0.0290
     54 H          -1.0306    6.9206    0.3928 H       1  UNL1        0.0267
     55 H          -2.1291    5.8534   -0.5293 H       1  UNL1        0.0267
     56 H          -3.0128    6.2223    1.7184 H       1  UNL1        0.0287
     57 H          -1.4511    5.7702    2.4583 H       1  UNL1        0.0287
     58 H          -2.1819    3.6263    2.5462 H       1  UNL1        0.0560
     59 H          -3.6202    4.0296    1.5751 H       1  UNL1        0.0560
     60 H           1.2030    1.4150   -2.0818 H       1  UNL1        0.0284
     61 H          -0.1053    0.4348   -2.6814 H       1  UNL1        0.0284
     62 H           1.6981   -1.0710   -2.2979 H       1  UNL1        0.0444
     63 H           0.7585   -1.2271   -0.7457 H       1  UNL1        0.0444
@<TRIPOS>BOND
     1     1     2    1
     2     2     3    1
     3     3     4    1
     4     4     5    2
     5     4     6    2
     6     4     7    1
     7     7     8    1
     8     8     9    1
     9     9    10    1
    10    10    11    1
    11    11    12    1
    12    12    13   am
    13    13    14    2
    14    13    15    1
    15    15    16   ar
    16    16    17   ar
    17    17    18   ar
    18    18    19    1
    19    18    20   ar
    20    20    21   ar
    21    21    22    1
    22    10    23    1
    23    23    24    1
    24    24    25    1
    25    25    26    1
    26    26    27    1
    27    27    28    1
    28    28    29    1
    29    10    30    1
    30    30    31    1
    31    31     7    1
    32    21    15   ar
    33    29    24    1
    34     1    32    1
    35     1    33    1
    36     1    34    1
    37     2    35    1
    38     2    36    1
    39     3    37    1
    40     3    38    1
    41     8    39    1
    42     8    40    1
    43     9    41    1
    44     9    42    1
    45    11    43    1
    46    11    44    1
    47    12    45    1
    48    16    46    1
    49    17    47    1
    50    20    48    1
    51    23    49    1
    52    23    50    1
    53    24    51    1
    54    25    52    1
    55    25    53    1
    56    26    54    1
    57    26    55    1
    58    27    56    1
    59    27    57    1
    60    28    58    1
    61    28    59    1
    62    30    60    1
    63    30    61    1
    64    31    62    1
    65    31    63    1
