@<TRIPOS>MOLECULE
*****
 57 61 0 0 0
SMALL
GASTEIGER

@<TRIPOS>ATOM
      1 C          -2.1896   -2.1396   -3.3101 C.3     1  UNL1       -0.0372
      2 C          -2.1239   -1.9537   -1.8125 C.3     1  UNL1        0.0717
      3 C          -1.1004   -0.9109   -1.4191 C.3     1  UNL1        0.0414
      4 N          -0.9384   -0.9992    0.0055 N.am    1  UNL1       -0.2895
      5 C          -1.0813    0.1579    0.7761 C.2     1  UNL1        0.2491
      6 O          -0.9484    0.1095    2.0474 O.2     1  UNL1       -0.2699
      7 C          -1.3798    1.4738    0.2452 C.ar    1  UNL1        0.0641
      8 C          -0.3136    2.2740   -0.1147 C.ar    1  UNL1       -0.0461
      9 C          -0.5020    3.5340   -0.6276 C.ar    1  UNL1       -0.0425
     10 C          -1.8005    3.9917   -0.7784 C.ar    1  UNL1        0.0431
     11 CL         -2.0432    5.5957   -1.4318 Cl      1  UNL1       -0.0835
     12 C          -2.8570    3.1739   -0.4117 C.ar    1  UNL1       -0.0155
     13 C          -2.6712    1.9152    0.1006 C.ar    1  UNL1        0.0996
     14 N          -3.7962    1.1051    0.4660 N.ar    1  UNL1       -0.1495
     15 N          -5.0522    1.4122    0.2176 N.ar    1  UNL1       -0.1556
     16 C          -5.8759    0.4522    0.6835 C.ar    1  UNL1        0.0697
     17 C          -5.0624   -0.4892    1.2467 C.ar    1  UNL1        0.0697
     18 N          -3.7960   -0.0397    1.0860 N.ar    1  UNL1       -0.1556
     19 C          -0.6323   -2.2860    0.5686 C.3     1  UNL1        0.0538
     20 C           0.5805   -2.3365    1.4205 C.3     1  UNL1       -0.0041
     21 C           1.8523   -1.9761    0.7892 C.ar    1  UNL1       -0.0097
     22 C           2.3573   -0.7007    0.9329 C.ar    1  UNL1       -0.0451
     23 C           3.5287   -0.2816    0.3493 C.ar    1  UNL1        0.0195
     24 C           4.0457    1.0742    0.5113 C.ar    1  UNL1        0.1597
     25 N           5.1818    1.4802   -0.0542 N.ar    1  UNL1       -0.2357
     26 C           5.6628    2.7425    0.0939 C.ar    1  UNL1        0.0314
     27 C           4.9721    3.6640    0.8528 C.ar    1  UNL1       -0.0254
     28 C           3.7908    3.2306    1.4369 C.ar    1  UNL1        0.0314
     29 N           3.3640    1.9637    1.2533 N.ar    1  UNL1       -0.2357
     30 C           4.2037   -1.2139   -0.4107 C.ar    1  UNL1       -0.0483
     31 C           3.7206   -2.4928   -0.5688 C.ar    1  UNL1       -0.0255
     32 C           2.5264   -2.9016    0.0333 C.ar    1  UNL1        0.1267
     33 F           2.1158   -4.1913   -0.1495 F       1  UNL1       -0.2052
     34 C          -0.6322   -3.2529   -0.6054 C.3     1  UNL1        0.0669
     35 O          -1.9433   -3.1453   -1.1481 O.3     1  UNL1       -0.3734
     36 H          -1.5971   -3.0456   -3.5948 H       1  UNL1        0.0255
     37 H          -3.2424   -2.3768   -3.5655 H       1  UNL1        0.0255
     38 H          -1.8707   -1.2398   -3.8431 H       1  UNL1        0.0255
     39 H          -3.1094   -1.5454   -1.4788 H       1  UNL1        0.0609
     40 H          -1.4950    0.0927   -1.7334 H       1  UNL1        0.0490
     41 H          -0.1416   -1.0473   -1.9606 H       1  UNL1        0.0490
     42 H           0.7125    1.9429   -0.0087 H       1  UNL1        0.0626
     43 H           0.3297    4.1804   -0.9176 H       1  UNL1        0.0632
     44 H          -3.8716    3.5799   -0.5487 H       1  UNL1        0.0654
     45 H          -6.9566    0.4087    0.6360 H       1  UNL1        0.0864
     46 H          -5.2970   -1.4234    1.7366 H       1  UNL1        0.0864
     47 H          -1.4819   -2.6604    1.2203 H       1  UNL1        0.0526
     48 H           0.3779   -1.7565    2.3432 H       1  UNL1        0.0333
     49 H           0.6493   -3.4084    1.7924 H       1  UNL1        0.0333
     50 H           1.8383    0.0622    1.5335 H       1  UNL1        0.0628
     51 H           6.5969    3.0418   -0.3825 H       1  UNL1        0.0831
     52 H           5.2859    4.6806    1.0182 H       1  UNL1        0.0648
     53 H           3.1655    3.8792    2.0566 H       1  UNL1        0.0831
     54 H           5.1430   -0.9150   -0.8922 H       1  UNL1        0.0625
     55 H           4.2618   -3.2156   -1.1688 H       1  UNL1        0.0646
     56 H          -0.5710   -4.2722   -0.1936 H       1  UNL1        0.0578
     57 H           0.1106   -3.0019   -1.3721 H       1  UNL1        0.0578
@<TRIPOS>BOND
     1     1     2    1
     2     2     3    1
     3     3     4    1
     4     4     5   am
     5     5     6    2
     6     5     7    1
     7     7     8   ar
     8     8     9   ar
     9     9    10   ar
    10    10    11    1
    11    10    12   ar
    12    12    13   ar
    13    13    14    1
    14    14    15   ar
    15    15    16   ar
    16    16    17   ar
    17    17    18   ar
    18     4    19    1
    19    19    20    1
    20    20    21    1
    21    21    22   ar
    22    22    23   ar
    23    23    24    1
    24    24    25   ar
    25    25    26   ar
    26    26    27   ar
    27    27    28   ar
    28    28    29   ar
    29    23    30   ar
    30    30    31   ar
    31    31    32   ar
    32    32    33    1
    33    19    34    1
    34    34    35    1
    35    35     2    1
    36    13     7   ar
    37    18    14   ar
    38    32    21   ar
    39    29    24   ar
    40     1    36    1
    41     1    37    1
    42     1    38    1
    43     2    39    1
    44     3    40    1
    45     3    41    1
    46     8    42    1
    47     9    43    1
    48    12    44    1
    49    16    45    1
    50    17    46    1
    51    19    47    1
    52    20    48    1
    53    20    49    1
    54    22    50    1
    55    26    51    1
    56    27    52    1
    57    28    53    1
    58    30    54    1
    59    31    55    1
    60    34    56    1
    61    34    57    1
