
     RDKit          3D

 68 70  0  0  0  0  0  0  0  0999 V2000
   -2.2108   -2.7590    2.2268 C   0  0  0  0  0  0  0  0  0  0  0  0
   -3.6315   -2.2959    2.2540 C   0  0  0  0  0  0  0  0  0  0  0  0
   -4.1646   -1.8716    3.5790 C   0  0  0  0  0  0  0  0  0  0  0  0
   -3.9243   -1.3498    1.1391 C   0  0  0  0  0  0  0  0  0  0  0  0
   -4.6670   -1.7999    0.0446 C   0  0  0  0  0  0  0  0  0  0  0  0
   -5.0235   -1.0425   -0.9950 N   0  0  0  0  0  0  0  0  0  0  0  0
   -4.6601    0.2715   -1.0372 C   0  0  0  0  0  0  0  0  0  0  0  0
   -5.0599    1.0906   -2.1851 C   0  0  0  0  0  0  0  0  0  0  0  0
   -4.7389    2.4110   -2.3073 C   0  0  0  0  0  0  0  0  0  0  0  0
   -5.1423    3.1437   -3.4162 C   0  0  0  0  0  0  0  0  0  0  0  0
   -4.6960    4.8258   -3.5049 Cl  0  0  0  0  0  0  0  0  0  0  0  0
   -5.8757    2.5734   -4.4279 C   0  0  0  0  0  0  0  0  0  0  0  0
   -6.2029    1.2297   -4.3044 C   0  0  0  0  0  0  0  0  0  0  0  0
   -5.7963    0.5209   -3.2026 C   0  0  0  0  0  0  0  0  0  0  0  0
   -6.1323   -0.7826   -3.1160 F   0  0  0  0  0  0  0  0  0  0  0  0
   -3.9409    0.7239    0.0123 C   0  0  0  0  0  0  0  0  0  0  0  0
   -3.5374   -0.0281    1.1312 C   0  0  0  0  0  0  0  0  0  0  0  0
   -2.7788    0.5607    2.1309 N   0  0  0  0  0  0  0  0  0  0  0  0
   -1.5670    0.2756    2.7773 C   0  0  0  0  0  0  0  0  0  0  0  0
   -1.6239    0.1096    4.1907 C   0  0  0  0  0  0  0  0  0  0  0  0
   -0.4965   -0.1987    4.8593 C   0  0  0  0  0  0  0  0  0  0  0  0
    0.6772   -0.3494    4.2027 N   0  0  0  0  0  0  0  0  0  0  0  0
    0.7595   -0.1980    2.8800 C   0  0  0  0  0  0  0  0  0  0  0  0
   -0.3807    0.1262    2.1126 C   0  0  0  0  0  0  0  0  0  0  0  0
   -0.1966    0.3560    0.6867 C   0  0  0  0  0  0  0  0  0  0  0  0
   -1.0609    0.8963   -0.0192 O   0  0  0  0  0  0  0  0  0  0  0  0
    0.9908   -0.0290    0.0099 N   0  0  0  0  0  0  0  0  0  0  0  0
    1.1389    0.2240   -1.4388 C   0  0  0  0  0  0  0  0  0  0  0  0
    2.4883   -0.2851   -1.8914 C   0  0  0  0  0  0  0  0  0  0  0  0
    3.5676    0.3658   -1.2042 N   0  0  0  0  0  0  0  0  0  0  0  0
    4.9255    0.0514   -1.4634 C   0  0  0  0  0  0  0  0  0  0  0  0
    5.2556   -0.8196   -2.3143 O   0  0  0  0  0  0  0  0  0  0  0  0
    5.9353    0.6922   -0.7889 O   0  0  0  0  0  0  0  0  0  0  0  0
    7.3009    0.4784   -0.9482 C   0  0  0  0  0  0  0  0  0  0  0  0
    7.7416   -0.9319   -0.6509 C   0  0  0  0  0  0  0  0  0  0  0  0
    7.8117    0.8337   -2.3239 C   0  0  0  0  0  0  0  0  0  0  0  0
    8.0175    1.3857    0.0602 C   0  0  0  0  0  0  0  0  0  0  0  0
   -2.1070   -3.8796    2.0777 H   0  0  0  0  0  0  0  0  0  0  0  0
   -1.7117   -2.5846    3.1981 H   0  0  0  0  0  0  0  0  0  0  0  0
   -1.6523   -2.3394    1.3606 H   0  0  0  0  0  0  0  0  0  0  0  0
   -4.2366   -3.2399    2.0074 H   0  0  0  0  0  0  0  0  0  0  0  0
   -4.4547   -0.7991    3.6164 H   0  0  0  0  0  0  0  0  0  0  0  0
   -3.4261   -2.1492    4.3677 H   0  0  0  0  0  0  0  0  0  0  0  0
   -5.1061   -2.4129    3.8907 H   0  0  0  0  0  0  0  0  0  0  0  0
   -4.9767   -2.8662    0.0490 H   0  0  0  0  0  0  0  0  0  0  0  0
   -4.1650    2.9023   -1.5394 H   0  0  0  0  0  0  0  0  0  0  0  0
   -6.1927    3.1499   -5.2996 H   0  0  0  0  0  0  0  0  0  0  0  0
   -6.7816    0.7998   -5.1135 H   0  0  0  0  0  0  0  0  0  0  0  0
   -3.6378    1.7841    0.0070 H   0  0  0  0  0  0  0  0  0  0  0  0
   -3.2328    1.4813    2.5200 H   0  0  0  0  0  0  0  0  0  0  0  0
   -2.5715    0.2471    4.6572 H   0  0  0  0  0  0  0  0  0  0  0  0
   -0.4861   -0.3386    5.9546 H   0  0  0  0  0  0  0  0  0  0  0  0
    1.7118   -0.3221    2.4136 H   0  0  0  0  0  0  0  0  0  0  0  0
    1.7518   -0.4942    0.5304 H   0  0  0  0  0  0  0  0  0  0  0  0
    0.3625   -0.3032   -2.0062 H   0  0  0  0  0  0  0  0  0  0  0  0
    1.1231    1.3220   -1.5562 H   0  0  0  0  0  0  0  0  0  0  0  0
    2.5296   -1.3819   -1.6351 H   0  0  0  0  0  0  0  0  0  0  0  0
    2.5543   -0.1523   -2.9844 H   0  0  0  0  0  0  0  0  0  0  0  0
    3.3501    1.0910   -0.4935 H   0  0  0  0  0  0  0  0  0  0  0  0
    7.1707   -1.3937    0.1831 H   0  0  0  0  0  0  0  0  0  0  0  0
    7.7298   -1.5836   -1.5461 H   0  0  0  0  0  0  0  0  0  0  0  0
    8.8231   -0.8693   -0.3328 H   0  0  0  0  0  0  0  0  0  0  0  0
    8.8541    1.1952   -2.2025 H   0  0  0  0  0  0  0  0  0  0  0  0
    7.2403    1.6343   -2.8091 H   0  0  0  0  0  0  0  0  0  0  0  0
    7.8983   -0.0860   -2.9674 H   0  0  0  0  0  0  0  0  0  0  0  0
    7.6532    1.1727    1.0861 H   0  0  0  0  0  0  0  0  0  0  0  0
    9.1115    1.1937    0.0656 H   0  0  0  0  0  0  0  0  0  0  0  0
    7.7727    2.4237   -0.2568 H   0  0  0  0  0  0  0  0  0  0  0  0
  1  2  1  0
  2  3  1  0
  2  4  1  0
  4  5  2  0
  5  6  1  0
  6  7  2  0
  7  8  1  0
  8  9  2  0
  9 10  1  0
 10 11  1  0
 10 12  2  0
 12 13  1  0
 13 14  2  0
 14 15  1  0
  7 16  1  0
 16 17  2  0
 17 18  1  0
 18 19  1  0
 19 20  2  0
 20 21  1  0
 21 22  2  0
 22 23  1  0
 23 24  2  0
 24 25  1  0
 25 26  2  0
 25 27  1  0
 27 28  1  0
 28 29  1  0
 29 30  1  0
 30 31  1  0
 31 32  2  0
 31 33  1  0
 33 34  1  0
 34 35  1  0
 34 36  1  0
 34 37  1  0
 17  4  1  0
 24 19  1  0
 14  8  1  0
  1 38  1  0
  1 39  1  0
  1 40  1  0
  2 41  1  0
  3 42  1  0
  3 43  1  0
  3 44  1  0
  5 45  1  0
  9 46  1  0
 12 47  1  0
 13 48  1  0
 16 49  1  0
 18 50  1  0
 20 51  1  0
 21 52  1  0
 23 53  1  0
 27 54  1  0
 28 55  1  0
 28 56  1  0
 29 57  1  0
 29 58  1  0
 30 59  1  0
 35 60  1  0
 35 61  1  0
 35 62  1  0
 36 63  1  0
 36 64  1  0
 36 65  1  0
 37 66  1  0
 37 67  1  0
 37 68  1  0
M  END
$$$$
