@<TRIPOS>MOLECULE
*****
 68 70 0 0 0
SMALL
GASTEIGER

@<TRIPOS>ATOM
      1 C          -2.2108   -2.7590    2.2268 C.3     1  UNL1       -0.0585
      2 C          -3.6315   -2.2959    2.2540 C.3     1  UNL1       -0.0183
      3 C          -4.1646   -1.8716    3.5790 C.3     1  UNL1       -0.0585
      4 C          -3.9243   -1.3498    1.1391 C.ar    1  UNL1       -0.0056
      5 C          -4.6670   -1.7999    0.0446 C.ar    1  UNL1        0.0334
      6 N          -5.0235   -1.0425   -0.9950 N.ar    1  UNL1       -0.2545
      7 C          -4.6601    0.2715   -1.0372 C.ar    1  UNL1        0.0755
      8 C          -5.0599    1.0906   -2.1851 C.ar    1  UNL1        0.0369
      9 C          -4.7389    2.4110   -2.3073 C.ar    1  UNL1       -0.0314
     10 C          -5.1423    3.1437   -3.4162 C.ar    1  UNL1        0.0418
     11 CL         -4.6960    4.8258   -3.5049 Cl      1  UNL1       -0.0835
     12 C          -5.8757    2.5734   -4.4279 C.ar    1  UNL1       -0.0406
     13 C          -6.2029    1.2297   -4.3044 C.ar    1  UNL1       -0.0244
     14 C          -5.7963    0.5209   -3.2026 C.ar    1  UNL1        0.1326
     15 F          -6.1323   -0.7826   -3.1160 F       1  UNL1       -0.2048
     16 C          -3.9409    0.7239    0.0123 C.ar    1  UNL1       -0.0141
     17 C          -3.5374   -0.0281    1.1312 C.ar    1  UNL1        0.0383
     18 N          -2.7788    0.5607    2.1309 N.pl3   1  UNL1       -0.3135
     19 C          -1.5670    0.2756    2.7773 C.ar    1  UNL1        0.0465
     20 C          -1.6239    0.1096    4.1907 C.ar    1  UNL1       -0.0217
     21 C          -0.4965   -0.1987    4.8593 C.ar    1  UNL1        0.0293
     22 N           0.6772   -0.3494    4.2027 N.ar    1  UNL1       -0.2624
     23 C           0.7595   -0.1980    2.8800 C.ar    1  UNL1        0.0415
     24 C          -0.3807    0.1262    2.1126 C.ar    1  UNL1        0.0758
     25 C          -0.1966    0.3560    0.6867 C.2     1  UNL1        0.2474
     26 O          -1.0609    0.8963   -0.0192 O.2     1  UNL1       -0.2701
     27 N           0.9908   -0.0290    0.0099 N.am    1  UNL1       -0.3098
     28 C           1.1389    0.2240   -1.4388 C.3     1  UNL1        0.0276
     29 C           2.4883   -0.2851   -1.8914 C.3     1  UNL1        0.0303
     30 N           3.5676    0.3658   -1.2042 N.am    1  UNL1       -0.2796
     31 C           4.9255    0.0514   -1.4634 C.2     1  UNL1        0.4008
     32 O           5.2556   -0.8196   -2.3143 O.2     1  UNL1       -0.2265
     33 O           5.9353    0.6922   -0.7889 O.3     1  UNL1       -0.4447
     34 C           7.3009    0.4784   -0.9482 C.3     1  UNL1        0.1068
     35 C           7.7416   -0.9319   -0.6509 C.3     1  UNL1       -0.0253
     36 C           7.8117    0.8337   -2.3239 C.3     1  UNL1       -0.0253
     37 C           8.0175    1.3857    0.0602 C.3     1  UNL1       -0.0253
     38 H          -2.1070   -3.8796    2.0777 H       1  UNL1        0.0235
     39 H          -1.7117   -2.5846    3.1981 H       1  UNL1        0.0235
     40 H          -1.6523   -2.3394    1.3606 H       1  UNL1        0.0235
     41 H          -4.2366   -3.2399    2.0074 H       1  UNL1        0.0344
     42 H          -4.4547   -0.7991    3.6164 H       1  UNL1        0.0235
     43 H          -3.4261   -2.1492    4.3677 H       1  UNL1        0.0235
     44 H          -5.1061   -2.4129    3.8907 H       1  UNL1        0.0235
     45 H          -4.9767   -2.8662    0.0490 H       1  UNL1        0.0833
     46 H          -4.1650    2.9023   -1.5394 H       1  UNL1        0.0639
     47 H          -6.1927    3.1499   -5.2996 H       1  UNL1        0.0633
     48 H          -6.7816    0.7998   -5.1135 H       1  UNL1        0.0647
     49 H          -3.6378    1.7841    0.0070 H       1  UNL1        0.0658
     50 H          -3.2328    1.4813    2.5200 H       1  UNL1        0.1522
     51 H          -2.5715    0.2471    4.6572 H       1  UNL1        0.0651
     52 H          -0.4861   -0.3386    5.9546 H       1  UNL1        0.0830
     53 H           1.7118   -0.3221    2.4136 H       1  UNL1        0.0838
     54 H           1.7518   -0.4942    0.5304 H       1  UNL1        0.1491
     55 H           0.3625   -0.3032   -2.0062 H       1  UNL1        0.0477
     56 H           1.1231    1.3220   -1.5562 H       1  UNL1        0.0477
     57 H           2.5296   -1.3819   -1.6351 H       1  UNL1        0.0478
     58 H           2.5543   -0.1523   -2.9844 H       1  UNL1        0.0478
     59 H           3.3501    1.0910   -0.4935 H       1  UNL1        0.1521
     60 H           7.1707   -1.3937    0.1831 H       1  UNL1        0.0268
     61 H           7.7298   -1.5836   -1.5461 H       1  UNL1        0.0268
     62 H           8.8231   -0.8693   -0.3328 H       1  UNL1        0.0268
     63 H           8.8541    1.1952   -2.2025 H       1  UNL1        0.0268
     64 H           7.2403    1.6343   -2.8091 H       1  UNL1        0.0268
     65 H           7.8983   -0.0860   -2.9674 H       1  UNL1        0.0268
     66 H           7.6532    1.1727    1.0861 H       1  UNL1        0.0268
     67 H           9.1115    1.1937    0.0656 H       1  UNL1        0.0268
     68 H           7.7727    2.4237   -0.2568 H       1  UNL1        0.0268
@<TRIPOS>BOND
     1     1     2    1
     2     2     3    1
     3     2     4    1
     4     4     5   ar
     5     5     6   ar
     6     6     7   ar
     7     7     8    1
     8     8     9   ar
     9     9    10   ar
    10    10    11    1
    11    10    12   ar
    12    12    13   ar
    13    13    14   ar
    14    14    15    1
    15     7    16   ar
    16    16    17   ar
    17    17    18    1
    18    18    19    1
    19    19    20   ar
    20    20    21   ar
    21    21    22   ar
    22    22    23   ar
    23    23    24   ar
    24    24    25    1
    25    25    26    2
    26    25    27   am
    27    27    28    1
    28    28    29    1
    29    29    30    1
    30    30    31   am
    31    31    32    2
    32    31    33    1
    33    33    34    1
    34    34    35    1
    35    34    36    1
    36    34    37    1
    37    17     4   ar
    38    24    19   ar
    39    14     8   ar
    40     1    38    1
    41     1    39    1
    42     1    40    1
    43     2    41    1
    44     3    42    1
    45     3    43    1
    46     3    44    1
    47     5    45    1
    48     9    46    1
    49    12    47    1
    50    13    48    1
    51    16    49    1
    52    18    50    1
    53    20    51    1
    54    21    52    1
    55    23    53    1
    56    27    54    1
    57    28    55    1
    58    28    56    1
    59    29    57    1
    60    29    58    1
    61    30    59    1
    62    35    60    1
    63    35    61    1
    64    35    62    1
    65    36    63    1
    66    36    64    1
    67    36    65    1
    68    37    66    1
    69    37    67    1
    70    37    68    1
