@<TRIPOS>MOLECULE
*****
 77 77 0 0 0
SMALL
GASTEIGER

@<TRIPOS>ATOM
      1 C           7.2090   -0.4758   -3.4141 C.3     1  UNL1       -0.0652
      2 C           7.3703   -0.9647   -2.0042 C.3     1  UNL1       -0.0545
      3 C           8.1564   -0.0096   -1.1496 C.3     1  UNL1       -0.0376
      4 C           7.5110    1.3503   -1.0483 C.3     1  UNL1        0.0116
      5 N           6.1899    1.3095   -0.4791 N.am    1  UNL1       -0.3151
      6 C           5.9497    0.8156    0.8232 C.2     1  UNL1        0.2159
      7 O           6.9356    0.4076    1.4774 O.2     1  UNL1       -0.2755
      8 C           4.5666    0.7702    1.4241 C.3     1  UNL1        0.0351
      9 C           4.6816    0.1851    2.7893 C.3     1  UNL1       -0.0540
     10 C           3.6635    0.0214    0.5114 C.3     1  UNL1       -0.0145
     11 C           2.2315   -0.1090    1.0066 C.3     1  UNL1        0.0725
     12 O           1.5871   -0.8520   -0.0223 O.3     1  UNL1       -0.3902
     13 C           1.5244    1.2008    1.0517 C.3     1  UNL1        0.0471
     14 N           1.6139    1.8658   -0.2440 N.3     1  UNL1       -0.3239
     15 C           0.2379    1.3138    1.7433 C.3     1  UNL1        0.0328
     16 N          -0.8859    0.5411    1.3733 N.am    1  UNL1       -0.2934
     17 C          -1.7016    1.0000    0.2670 C.2     1  UNL1        0.2469
     18 O          -1.3982    2.0560   -0.3064 O.2     1  UNL1       -0.2700
     19 C          -2.8741    0.2620   -0.2030 C.ar    1  UNL1        0.0374
     20 C          -2.7945   -0.5759   -1.3053 C.ar    1  UNL1       -0.0462
     21 C          -3.9114   -1.2550   -1.7205 C.ar    1  UNL1       -0.0189
     22 C          -5.1449   -1.1515   -1.0889 C.ar    1  UNL1        0.1248
     23 O          -6.2405   -1.8877   -1.5705 O.3     1  UNL1       -0.4948
     24 C          -6.1590   -2.7301   -2.6750 C.3     1  UNL1        0.0788
     25 C          -5.2413   -0.3286   -0.0031 C.ar    1  UNL1        0.0121
     26 C          -6.4647   -0.0540    0.7338 C.3     1  UNL1        0.0434
     27 N          -7.2951    1.0139    0.3486 N.am    1  UNL1       -0.2769
     28 C          -7.9641    1.2367   -0.8505 C.2     1  UNL1        0.4003
     29 O          -7.8930    0.4484   -1.7879 O.2     1  UNL1       -0.2265
     30 O          -8.7646    2.3742   -1.0733 O.3     1  UNL1       -0.4537
     31 C          -9.4394    2.5921   -2.2970 C.3     1  UNL1        0.0833
     32 C          -4.0987    0.3586    0.4137 C.ar    1  UNL1       -0.0415
     33 C          -1.3825   -0.6101    2.0659 C.3     1  UNL1        0.0207
     34 C          -1.8959   -0.1727    3.4755 C.3     1  UNL1       -0.0467
     35 C          -0.4556   -1.7403    2.3417 C.3     1  UNL1       -0.0467
     36 H           6.9996   -1.3709   -4.0574 H       1  UNL1        0.0230
     37 H           8.1438    0.0258   -3.7609 H       1  UNL1        0.0230
     38 H           6.3639    0.2439   -3.5073 H       1  UNL1        0.0230
     39 H           6.3571   -1.1414   -1.5708 H       1  UNL1        0.0263
     40 H           7.9049   -1.9244   -2.0258 H       1  UNL1        0.0263
     41 H           9.1341    0.1378   -1.6663 H       1  UNL1        0.0280
     42 H           8.3471   -0.4511   -0.1695 H       1  UNL1        0.0280
     43 H           8.1952    1.9869   -0.4422 H       1  UNL1        0.0462
     44 H           7.5059    1.7803   -2.0653 H       1  UNL1        0.0462
     45 H           5.3759    1.6529   -1.0369 H       1  UNL1        0.1487
     46 H           4.2243    1.8243    1.4955 H       1  UNL1        0.0392
     47 H           5.6530    0.5570    3.2223 H       1  UNL1        0.0237
     48 H           4.7903   -0.9177    2.7544 H       1  UNL1        0.0237
     49 H           3.9068    0.5209    3.5049 H       1  UNL1        0.0237
     50 H           4.0412   -1.0406    0.4396 H       1  UNL1        0.0298
     51 H           3.6432    0.4055   -0.5159 H       1  UNL1        0.0298
     52 H           2.2091   -0.7168    1.9050 H       1  UNL1        0.0609
     53 H           2.2161   -1.4650   -0.4507 H       1  UNL1        0.2098
     54 H           2.2441    1.8677    1.6889 H       1  UNL1        0.0499
     55 H           1.2053    2.8160   -0.2537 H       1  UNL1        0.1186
     56 H           1.1227    1.2844   -0.9465 H       1  UNL1        0.1186
     57 H           0.4682    1.1610    2.8625 H       1  UNL1        0.0481
     58 H          -0.0848    2.4173    1.7725 H       1  UNL1        0.0481
     59 H          -1.8285   -0.6653   -1.8093 H       1  UNL1        0.0626
     60 H          -3.8509   -1.9095   -2.5825 H       1  UNL1        0.0654
     61 H          -6.1305   -2.1150   -3.6045 H       1  UNL1        0.0660
     62 H          -7.0879   -3.3404   -2.7399 H       1  UNL1        0.0660
     63 H          -5.2910   -3.4308   -2.6254 H       1  UNL1        0.0660
     64 H          -6.2806    0.0111    1.8544 H       1  UNL1        0.0514
     65 H          -7.1005   -0.9921    0.6721 H       1  UNL1        0.0514
     66 H          -7.4528    1.8051    1.0873 H       1  UNL1        0.1523
     67 H          -9.0509    1.9753   -3.1232 H       1  UNL1        0.0661
     68 H          -9.4993    3.6678   -2.5553 H       1  UNL1        0.0661
     69 H         -10.4968    2.2425   -2.1231 H       1  UNL1        0.0661
     70 H          -4.1453    1.0282    1.2875 H       1  UNL1        0.0629
     71 H          -2.3521   -0.9710    1.5908 H       1  UNL1        0.0495
     72 H          -2.5068   -1.0275    3.8227 H       1  UNL1        0.0247
     73 H          -2.5316    0.7063    3.4038 H       1  UNL1        0.0247
     74 H          -1.0320   -0.0944    4.1572 H       1  UNL1        0.0247
     75 H          -1.0553   -2.4685    2.9797 H       1  UNL1        0.0247
     76 H          -0.0207   -2.2515    1.4895 H       1  UNL1        0.0247
     77 H           0.3235   -1.3715    3.0385 H       1  UNL1        0.0247
@<TRIPOS>BOND
     1     1     2    1
     2     2     3    1
     3     3     4    1
     4     4     5    1
     5     5     6   am
     6     6     7    2
     7     6     8    1
     8     8     9    1
     9     8    10    1
    10    10    11    1
    11    11    12    1
    12    11    13    1
    13    13    14    1
    14    13    15    1
    15    15    16    1
    16    16    17   am
    17    17    18    2
    18    17    19    1
    19    19    20   ar
    20    20    21   ar
    21    21    22   ar
    22    22    23    1
    23    23    24    1
    24    22    25   ar
    25    25    26    1
    26    26    27    1
    27    27    28   am
    28    28    29    2
    29    28    30    1
    30    30    31    1
    31    25    32   ar
    32    16    33    1
    33    33    34    1
    34    33    35    1
    35    32    19   ar
    36     1    36    1
    37     1    37    1
    38     1    38    1
    39     2    39    1
    40     2    40    1
    41     3    41    1
    42     3    42    1
    43     4    43    1
    44     4    44    1
    45     5    45    1
    46     8    46    1
    47     9    47    1
    48     9    48    1
    49     9    49    1
    50    10    50    1
    51    10    51    1
    52    11    52    1
    53    12    53    1
    54    13    54    1
    55    14    55    1
    56    14    56    1
    57    15    57    1
    58    15    58    1
    59    20    59    1
    60    21    60    1
    61    24    61    1
    62    24    62    1
    63    24    63    1
    64    26    64    1
    65    26    65    1
    66    27    66    1
    67    31    67    1
    68    31    68    1
    69    31    69    1
    70    32    70    1
    71    33    71    1
    72    34    72    1
    73    34    73    1
    74    34    74    1
    75    35    75    1
    76    35    76    1
    77    35    77    1
