@<TRIPOS>MOLECULE
*****
 39 41 0 0 0
SMALL
GASTEIGER

@<TRIPOS>ATOM
      1 C          -3.7255   -2.1466    0.8043 C.3     1  UNL1       -0.0572
      2 C          -3.7428   -0.9520   -0.1587 C.3     1  UNL1       -0.0039
      3 C          -5.0881   -0.3320   -0.1073 C.3     1  UNL1       -0.0453
      4 C          -5.1127    1.1524   -0.0264 C.3     1  UNL1       -0.0521
      5 C          -3.8835    1.8295   -0.5378 C.3     1  UNL1       -0.0479
      6 C          -2.7359    1.3943    0.3841 C.3     1  UNL1       -0.0125
      7 C          -2.6324   -0.0759    0.2322 C.2     1  UNL1        0.0397
      8 N          -1.4904   -0.6248    0.4583 N.2     1  UNL1       -0.1895
      9 N          -0.3449    0.0124    0.8292 N.pl3   1  UNL1       -0.2153
     10 C           0.9094   -0.3627    0.2175 C.ar    1  UNL1        0.1783
     11 N           2.0491   -0.1129    0.2222 N.ar    1  UNL1       -0.2235
     12 C           3.0548   -0.5937   -0.4391 C.ar    1  UNL1        0.0830
     13 C           4.4364   -0.1471   -0.2970 C.ar    1  UNL1        0.0363
     14 C           4.7555    0.8745    0.6071 C.ar    1  UNL1       -0.0471
     15 C           6.0298    1.3418    0.7906 C.ar    1  UNL1       -0.0257
     16 C           7.0910    0.8234    0.0825 C.ar    1  UNL1        0.1262
     17 F           8.3497    1.2928    0.2712 F       1  UNL1       -0.2054
     18 C           6.8012   -0.1767   -0.8073 C.ar    1  UNL1        0.0095
     19 C           5.4976   -0.6580   -0.9981 C.ar    1  UNL1        0.1353
     20 F           5.3077   -1.6528   -1.9031 F       1  UNL1       -0.2047
     21 C           2.6085   -1.6503   -1.3505 C.ar    1  UNL1        0.0050
     22 S           0.9069   -1.7334   -1.0824 S.2     1  UNL1       -0.0586
     23 H          -4.5687   -2.8371    0.6022 H       1  UNL1        0.0236
     24 H          -2.7397   -2.6243    0.7053 H       1  UNL1        0.0236
     25 H          -3.8105   -1.7150    1.8160 H       1  UNL1        0.0236
     26 H          -3.5381   -1.4103   -1.1696 H       1  UNL1        0.0358
     27 H          -5.6480   -0.6263   -1.0383 H       1  UNL1        0.0271
     28 H          -5.7100   -0.7636    0.7273 H       1  UNL1        0.0271
     29 H          -6.0075    1.6083   -0.5367 H       1  UNL1        0.0266
     30 H          -5.2375    1.4339    1.0569 H       1  UNL1        0.0266
     31 H          -4.0440    2.9260   -0.4571 H       1  UNL1        0.0269
     32 H          -3.6133    1.5029   -1.5537 H       1  UNL1        0.0269
     33 H          -3.0415    1.6970    1.4036 H       1  UNL1        0.0326
     34 H          -1.8245    1.9325    0.0940 H       1  UNL1        0.0326
     35 H          -0.2659    0.7752    1.5367 H       1  UNL1        0.1765
     36 H           3.9057    1.2865    1.1712 H       1  UNL1        0.0626
     37 H           6.2199    2.1429    1.5118 H       1  UNL1        0.0646
     38 H           7.6042   -0.6063   -1.3785 H       1  UNL1        0.0675
     39 H           3.2780   -2.2244   -2.0316 H       1  UNL1        0.0716
@<TRIPOS>BOND
     1     1     2    1
     2     2     3    1
     3     3     4    1
     4     4     5    1
     5     5     6    1
     6     6     7    1
     7     7     8    2
     8     8     9    1
     9     9    10    1
    10    10    11   ar
    11    11    12   ar
    12    12    13    1
    13    13    14   ar
    14    14    15   ar
    15    15    16   ar
    16    16    17    1
    17    16    18   ar
    18    18    19   ar
    19    19    20    1
    20    12    21   ar
    21    21    22   ar
    22     7     2    1
    23    22    10   ar
    24    19    13   ar
    25     1    23    1
    26     1    24    1
    27     1    25    1
    28     2    26    1
    29     3    27    1
    30     3    28    1
    31     4    29    1
    32     4    30    1
    33     5    31    1
    34     5    32    1
    35     6    33    1
    36     6    34    1
    37     9    35    1
    38    14    36    1
    39    15    37    1
    40    18    38    1
    41    21    39    1
