
     RDKit          3D

 54 57  0  0  0  0  0  0  0  0999 V2000
    9.9790    3.0290   -0.2340 C   0  0  0  0  0  0  0  0  0  0  0  0
    9.7319    1.9768   -0.6548 C   0  0  0  0  0  0  0  0  0  0  0  0
    9.4281    0.5820   -1.2276 C   0  0  0  0  0  0  0  0  0  0  0  0
    8.0900    0.4144   -1.0008 O   0  0  0  0  0  0  0  0  0  0  0  0
    6.9812    0.2598   -0.6823 C   0  0  0  0  0  0  0  0  0  0  0  0
    5.9108    0.2243   -1.7019 C   0  0  0  0  0  0  0  0  0  0  0  0
    4.6862    0.0256   -1.5268 N   0  0  0  0  0  0  0  0  0  0  0  0
    4.1379   -0.1953   -0.3350 C   0  0  0  0  0  0  0  0  0  0  0  0
    2.7653   -0.5603   -0.2515 C   0  0  0  0  0  0  0  0  0  0  0  0
    2.2619   -0.8452    0.9758 F   0  0  0  0  0  0  0  0  0  0  0  0
    1.9129   -0.6542   -1.2817 C   0  0  0  0  0  0  0  0  0  0  0  0
    0.5259   -1.0917   -0.8585 C   0  0  0  0  0  0  0  0  0  0  0  0
    0.5061   -2.3709   -0.3832 C   0  0  0  0  0  0  0  0  0  0  0  0
   -0.6155   -2.9164    0.2160 C   0  0  0  0  0  0  0  0  0  0  0  0
   -1.7022   -1.9462    0.2680 C   0  0  0  0  0  0  0  0  0  0  0  0
   -2.7061   -2.4544    1.0178 F   0  0  0  0  0  0  0  0  0  0  0  0
   -1.7319   -0.7364   -0.1673 C   0  0  0  0  0  0  0  0  0  0  0  0
   -2.8179    0.2115   -0.3714 C   0  0  1  0  0  0  0  0  0  0  0  0
   -2.3300    1.6023   -0.5207 C   0  0  0  0  0  0  0  0  0  0  0  0
   -3.5285   -0.3038   -1.4773 N   0  0  0  0  0  0  0  0  0  0  0  0
   -4.6659   -0.2723   -1.9374 C   0  0  0  0  0  0  0  0  0  0  0  0
   -4.9425   -0.9877   -3.1653 N   0  0  0  0  0  0  0  0  0  0  0  0
   -5.8532    0.6766   -1.0094 S   0  0  0  0  0  0  0  0  0  0  0  0
   -5.0994    0.6099    0.7360 C   0  0  1  0  0  0  0  0  0  0  0  0
   -6.0649    1.2338    1.6899 C   0  0  0  0  0  0  0  0  0  0  0  0
   -5.8204    1.4703    2.9584 O   0  0  0  0  0  0  0  0  0  0  0  0
   -5.4587    0.5746    3.8829 C   0  0  0  0  0  0  0  0  0  0  0  0
   -4.8013   -0.8538    1.0333 C   0  0  0  0  0  0  0  0  0  0  0  0
   -3.7485    0.2430    0.8574 C   0  0  1  0  0  0  0  0  0  0  0  0
   -0.4802   -0.2838   -0.8127 C   0  0  0  0  0  0  0  0  0  0  0  0
    5.0196   -0.1797    0.7112 C   0  0  0  0  0  0  0  0  0  0  0  0
    6.3097    0.0319    0.5307 N   0  0  0  0  0  0  0  0  0  0  0  0
   10.2227    4.1271    0.2210 H   0  0  0  0  0  0  0  0  0  0  0  0
   10.1564   -0.0601   -0.8839 H   0  0  0  0  0  0  0  0  0  0  0  0
    9.5477    0.7417   -2.3630 H   0  0  0  0  0  0  0  0  0  0  0  0
    6.3841    0.4437   -2.7062 H   0  0  0  0  0  0  0  0  0  0  0  0
    2.2177   -0.4072   -2.2347 H   0  0  0  0  0  0  0  0  0  0  0  0
    1.4137   -3.0602   -0.4513 H   0  0  0  0  0  0  0  0  0  0  0  0
   -0.6531   -3.8793    0.5514 H   0  0  0  0  0  0  0  0  0  0  0  0
   -2.0718    1.8660   -1.5378 H   0  0  0  0  0  0  0  0  0  0  0  0
   -1.4476    1.7245    0.1781 H   0  0  0  0  0  0  0  0  0  0  0  0
   -3.0308    2.4118   -0.0989 H   0  0  0  0  0  0  0  0  0  0  0  0
   -4.3632   -1.8644   -3.3448 H   0  0  0  0  0  0  0  0  0  0  0  0
   -5.6076   -0.5976   -3.7645 H   0  0  0  0  0  0  0  0  0  0  0  0
   -6.5339    2.1613    1.2121 H   0  0  0  0  0  0  0  0  0  0  0  0
   -7.0409    0.5003    1.6652 H   0  0  0  0  0  0  0  0  0  0  0  0
   -6.0388   -0.3763    3.9903 H   0  0  0  0  0  0  0  0  0  0  0  0
   -4.3624    0.5038    4.1674 H   0  0  0  0  0  0  0  0  0  0  0  0
   -5.7933    1.1483    4.9283 H   0  0  0  0  0  0  0  0  0  0  0  0
   -4.8434   -1.5393    0.1351 H   0  0  0  0  0  0  0  0  0  0  0  0
   -4.9689   -1.3009    1.9790 H   0  0  0  0  0  0  0  0  0  0  0  0
   -3.2135    0.4972    1.7746 H   0  0  0  0  0  0  0  0  0  0  0  0
   -0.4853    0.7351   -1.1704 H   0  0  0  0  0  0  0  0  0  0  0  0
    4.6327   -0.2891    1.7484 H   0  0  0  0  0  0  0  0  0  0  0  0
  1  2  3  0
  2  3  1  0
  3  4  1  0
  4  5  1  0
  5  6  2  0
  6  7  1  0
  7  8  2  0
  8  9  1  0
  9 10  1  0
  9 11  2  0
 11 12  1  0
 12 13  2  0
 13 14  1  0
 14 15  2  0
 15 16  1  0
 15 17  1  0
 17 18  1  0
 18 19  1  6
 18 20  1  0
 20 21  2  0
 21 22  1  0
 21 23  1  0
 23 24  1  0
 24 25  1  1
 25 26  1  0
 26 27  1  0
 24 28  1  0
 28 29  1  0
 17 30  2  0
  8 31  1  0
 31 32  2  0
 32  5  1  0
 30 12  1  0
 29 18  1  0
 29 24  1  0
  1 33  1  0
  3 34  1  0
  3 35  1  0
  6 36  1  0
 11 37  1  0
 13 38  1  0
 14 39  1  0
 19 40  1  0
 19 41  1  0
 19 42  1  0
 22 43  1  0
 22 44  1  0
 25 45  1  0
 25 46  1  0
 27 47  1  0
 27 48  1  0
 27 49  1  0
 28 50  1  0
 28 51  1  0
 29 52  1  1
 30 53  1  0
 31 54  1  0
M  END
$$$$
