@<TRIPOS>MOLECULE
*****
 54 57 0 0 0
SMALL
GASTEIGER

@<TRIPOS>ATOM
      1 C           9.9790    3.0290   -0.2340 C.1     1  UNL1       -0.1158
      2 C           9.7319    1.9768   -0.6548 C.1     1  UNL1       -0.0647
      3 C           9.4281    0.5820   -1.2276 C.3     1  UNL1        0.1513
      4 O           8.0900    0.4144   -1.0008 O.3     1  UNL1       -0.4624
      5 C           6.9812    0.2598   -0.6823 C.ar    1  UNL1        0.2344
      6 C           5.9108    0.2243   -1.7019 C.ar    1  UNL1        0.0899
      7 N           4.6862    0.0256   -1.5268 N.ar    1  UNL1       -0.2459
      8 C           4.1379   -0.1953   -0.3350 C.ar    1  UNL1        0.1172
      9 C           2.7653   -0.5603   -0.2515 C.2     1  UNL1        0.1507
     10 F           2.2619   -0.8452    0.9758 F       1  UNL1       -0.2032
     11 C           1.9129   -0.6542   -1.2817 C.2     1  UNL1       -0.0171
     12 C           0.5259   -1.0917   -0.8585 C.ar    1  UNL1       -0.0217
     13 C           0.5061   -2.3709   -0.3832 C.ar    1  UNL1       -0.0518
     14 C          -0.6155   -2.9164    0.2160 C.ar    1  UNL1       -0.0255
     15 C          -1.7022   -1.9462    0.2680 C.ar    1  UNL1        0.1289
     16 F          -2.7061   -2.4544    1.0178 F       1  UNL1       -0.2051
     17 C          -1.7319   -0.7364   -0.1673 C.ar    1  UNL1        0.0157
     18 C          -2.8179    0.2115   -0.3714 C.3     1  UNL1        0.0931
     19 C          -2.3300    1.6023   -0.5207 C.3     1  UNL1       -0.0352
     20 N          -3.5285   -0.3038   -1.4773 N.2     1  UNL1       -0.2521
     21 C          -4.6659   -0.2723   -1.9374 C.2     1  UNL1        0.1481
     22 N          -4.9425   -0.9877   -3.1653 N.pl3   1  UNL1       -0.3380
     23 S          -5.8532    0.6766   -1.0094 S.3     1  UNL1       -0.0817
     24 C          -5.0994    0.6099    0.7360 C.3     1  UNL1        0.0528
     25 C          -6.0649    1.2338    1.6899 C.3     1  UNL1        0.0627
     26 O          -5.8204    1.4703    2.9584 O.3     1  UNL1       -0.3816
     27 C          -5.4587    0.5746    3.8829 C.3     1  UNL1        0.0365
     28 C          -4.8013   -0.8538    1.0333 C.3     1  UNL1       -0.0287
     29 C          -3.7485    0.2430    0.8574 C.3     1  UNL1        0.0068
     30 C          -0.4802   -0.2838   -0.8127 C.ar    1  UNL1       -0.0463
     31 C           5.0196   -0.1797    0.7112 C.ar    1  UNL1        0.0596
     32 N           6.3097    0.0319    0.5307 N.ar    1  UNL1       -0.2178
     33 H          10.2227    4.1271    0.2210 H       1  UNL1        0.1229
     34 H          10.1564   -0.0601   -0.8839 H       1  UNL1        0.0837
     35 H           9.5477    0.7417   -2.3630 H       1  UNL1        0.0837
     36 H           6.3841    0.4437   -2.7062 H       1  UNL1        0.0884
     37 H           2.2177   -0.4072   -2.2347 H       1  UNL1        0.0653
     38 H           1.4137   -3.0602   -0.4513 H       1  UNL1        0.0624
     39 H          -0.6531   -3.8793    0.5514 H       1  UNL1        0.0646
     40 H          -2.0718    1.8660   -1.5378 H       1  UNL1        0.0256
     41 H          -1.4476    1.7245    0.1781 H       1  UNL1        0.0256
     42 H          -3.0308    2.4118   -0.0989 H       1  UNL1        0.0256
     43 H          -4.3632   -1.8644   -3.3448 H       1  UNL1        0.1442
     44 H          -5.6076   -0.5976   -3.7645 H       1  UNL1        0.1442
     45 H          -6.5339    2.1613    1.2121 H       1  UNL1        0.0574
     46 H          -7.0409    0.5003    1.6652 H       1  UNL1        0.0574
     47 H          -6.0388   -0.3763    3.9903 H       1  UNL1        0.0523
     48 H          -4.3624    0.5038    4.1674 H       1  UNL1        0.0523
     49 H          -5.7933    1.1483    4.9283 H       1  UNL1        0.0523
     50 H          -4.8434   -1.5393    0.1351 H       1  UNL1        0.0283
     51 H          -4.9689   -1.3009    1.9790 H       1  UNL1        0.0283
     52 H          -3.2135    0.4972    1.7746 H       1  UNL1        0.0342
     53 H          -0.4853    0.7351   -1.1704 H       1  UNL1        0.0628
     54 H           4.6327   -0.2891    1.7484 H       1  UNL1        0.0853
@<TRIPOS>BOND
     1     1     2    3
     2     2     3    1
     3     3     4    1
     4     4     5    1
     5     5     6   ar
     6     6     7   ar
     7     7     8   ar
     8     8     9    1
     9     9    10    1
    10     9    11    2
    11    11    12    1
    12    12    13   ar
    13    13    14   ar
    14    14    15   ar
    15    15    16    1
    16    15    17   ar
    17    17    18    1
    18    18    19    1
    19    18    20    1
    20    20    21    2
    21    21    22    1
    22    21    23    1
    23    23    24    1
    24    24    25    1
    25    25    26    1
    26    26    27    1
    27    24    28    1
    28    28    29    1
    29    17    30   ar
    30     8    31   ar
    31    31    32   ar
    32    32     5   ar
    33    30    12   ar
    34    29    18    1
    35    29    24    1
    36     1    33    1
    37     3    34    1
    38     3    35    1
    39     6    36    1
    40    11    37    1
    41    13    38    1
    42    14    39    1
    43    19    40    1
    44    19    41    1
    45    19    42    1
    46    22    43    1
    47    22    44    1
    48    25    45    1
    49    25    46    1
    50    27    47    1
    51    27    48    1
    52    27    49    1
    53    28    50    1
    54    28    51    1
    55    29    52    1
    56    30    53    1
    57    31    54    1
