
     RDKit          3D

 62 64  0  0  0  0  0  0  0  0999 V2000
    3.8766   -2.4318    0.3356 C   0  0  2  0  0  0  0  0  0  0  0  0
    5.0595   -2.8045   -0.5390 C   0  0  0  0  0  0  0  0  0  0  0  0
    5.4847   -1.4706   -1.0846 C   0  0  0  0  0  0  0  0  0  0  0  0
    4.1669   -0.7704   -1.3401 C   0  0  0  0  0  0  0  0  0  0  0  0
    3.1404   -1.3555   -0.4287 C   0  0  2  0  0  0  0  0  0  0  0  0
    2.6435   -0.4242    0.5757 N   0  0  0  0  0  0  0  0  0  0  0  0
    3.6441   -0.4178    1.6349 C   0  0  1  0  0  0  0  0  0  0  0  0
    4.4259   -1.6871    1.5331 C   0  0  0  0  0  0  0  0  0  0  0  0
    4.4629    0.8140    1.5713 C   0  0  0  0  0  0  0  0  0  0  0  0
    4.6447    1.9963    0.8672 O   0  0  0  0  0  0  0  0  0  0  0  0
    5.2966    0.7158    2.5339 O   0  0  0  0  0  0  0  0  0  0  0  0
    1.4926    0.4004    0.7217 C   0  0  0  0  0  0  0  0  0  0  0  0
    1.1708    1.1825    1.6635 O   0  0  0  0  0  0  0  0  0  0  0  0
    0.3885    0.4741   -0.3092 C   0  0  2  0  0  0  0  0  0  0  0  0
    0.9825    0.9004   -1.6363 C   0  0  0  0  0  0  0  0  0  0  0  0
   -0.5776    1.3911    0.1910 N   0  0  0  0  0  0  0  0  0  0  0  0
   -1.7170    1.6537   -0.6096 C   0  0  1  0  0  0  0  0  0  0  0  0
   -2.4863    0.3715   -0.8283 C   0  0  0  0  0  0  0  0  0  0  0  0
   -2.9452   -0.2317    0.4731 C   0  0  0  0  0  0  0  0  0  0  0  0
   -3.6875   -1.4774    0.1810 C   0  0  0  0  0  0  0  0  0  0  0  0
   -3.0895   -2.7392    0.0948 C   0  0  0  0  0  0  0  0  0  0  0  0
   -3.8801   -3.8350   -0.1833 C   0  0  0  0  0  0  0  0  0  0  0  0
   -5.2291   -3.7034   -0.3739 C   0  0  0  0  0  0  0  0  0  0  0  0
   -5.8738   -2.4887   -0.3015 C   0  0  0  0  0  0  0  0  0  0  0  0
   -5.0583   -1.3934   -0.0197 C   0  0  0  0  0  0  0  0  0  0  0  0
   -2.6128    2.6083    0.1270 C   0  0  0  0  0  0  0  0  0  0  0  0
   -2.1615    2.9471    1.2494 O   0  0  0  0  0  0  0  0  0  0  0  0
   -3.8088    3.0393   -0.4264 O   0  0  0  0  0  0  0  0  0  0  0  0
   -4.6182    3.9481    0.3236 C   0  0  0  0  0  0  0  0  0  0  0  0
   -3.8631    5.2446    0.6150 C   0  0  0  0  0  0  0  0  0  0  0  0
    3.2442   -3.2813    0.6105 H   0  0  0  0  0  0  0  0  0  0  0  0
    5.8755   -3.2717    0.0495 H   0  0  0  0  0  0  0  0  0  0  0  0
    4.7289   -3.4311   -1.3670 H   0  0  0  0  0  0  0  0  0  0  0  0
    6.0430   -0.8375   -0.3805 H   0  0  0  0  0  0  0  0  0  0  0  0
    6.0677   -1.6009   -2.0210 H   0  0  0  0  0  0  0  0  0  0  0  0
    4.2697    0.3286   -1.2857 H   0  0  0  0  0  0  0  0  0  0  0  0
    3.8981   -1.0603   -2.3982 H   0  0  0  0  0  0  0  0  0  0  0  0
    2.3241   -1.8298   -0.9798 H   0  0  0  0  0  0  0  0  0  0  0  0
    3.1149   -0.4702    2.6318 H   0  0  0  0  0  0  0  0  0  0  0  0
    4.2902   -2.3763    2.3953 H   0  0  0  0  0  0  0  0  0  0  0  0
    5.5064   -1.4984    1.4724 H   0  0  0  0  0  0  0  0  0  0  0  0
    5.6065    2.2642    0.6314 H   0  0  0  0  0  0  0  0  0  0  0  0
   -0.0192   -0.5555   -0.4537 H   0  0  0  0  0  0  0  0  0  0  0  0
    0.9611    0.0928   -2.3681 H   0  0  0  0  0  0  0  0  0  0  0  0
    0.4574    1.7945   -1.9995 H   0  0  0  0  0  0  0  0  0  0  0  0
    2.0455    1.2003   -1.4929 H   0  0  0  0  0  0  0  0  0  0  0  0
   -0.0796    2.2699    0.4601 H   0  0  0  0  0  0  0  0  0  0  0  0
   -1.5123    2.1069   -1.6017 H   0  0  0  0  0  0  0  0  0  0  0  0
   -1.8136   -0.3428   -1.3255 H   0  0  0  0  0  0  0  0  0  0  0  0
   -3.3894    0.5999   -1.4392 H   0  0  0  0  0  0  0  0  0  0  0  0
   -2.0937   -0.5027    1.1242 H   0  0  0  0  0  0  0  0  0  0  0  0
   -3.6191    0.4358    1.0392 H   0  0  0  0  0  0  0  0  0  0  0  0
   -2.0300   -2.7592    0.2562 H   0  0  0  0  0  0  0  0  0  0  0  0
   -3.3743   -4.7918   -0.2406 H   0  0  0  0  0  0  0  0  0  0  0  0
   -5.7949   -4.6045   -0.5895 H   0  0  0  0  0  0  0  0  0  0  0  0
   -6.9342   -2.3765   -0.4501 H   0  0  0  0  0  0  0  0  0  0  0  0
   -5.5289   -0.4204    0.0454 H   0  0  0  0  0  0  0  0  0  0  0  0
   -4.9592    3.4897    1.2571 H   0  0  0  0  0  0  0  0  0  0  0  0
   -5.4932    4.2072   -0.3119 H   0  0  0  0  0  0  0  0  0  0  0  0
   -3.6967    5.3496    1.7195 H   0  0  0  0  0  0  0  0  0  0  0  0
   -4.4706    6.1182    0.3233 H   0  0  0  0  0  0  0  0  0  0  0  0
   -2.8954    5.2969    0.0780 H   0  0  0  0  0  0  0  0  0  0  0  0
  1  2  1  0
  2  3  1  0
  3  4  1  0
  4  5  1  0
  5  6  1  0
  6  7  1  0
  7  8  1  0
  7  9  1  0
  9 10  1  0
  9 11  2  0
  6 12  1  0
 12 13  2  0
 12 14  1  0
 14 15  1  0
 14 16  1  0
 16 17  1  0
 17 18  1  0
 18 19  1  0
 19 20  1  0
 20 21  2  0
 21 22  1  0
 22 23  2  0
 23 24  1  0
 24 25  2  0
 17 26  1  0
 26 27  2  0
 26 28  1  0
 28 29  1  0
 29 30  1  0
  5  1  1  0
 25 20  1  0
  8  1  1  0
  1 31  1  1
  2 32  1  0
  2 33  1  0
  3 34  1  0
  3 35  1  0
  4 36  1  0
  4 37  1  0
  5 38  1  6
  7 39  1  1
  8 40  1  0
  8 41  1  0
 10 42  1  0
 14 43  1  6
 15 44  1  0
 15 45  1  0
 15 46  1  0
 16 47  1  0
 17 48  1  6
 18 49  1  0
 18 50  1  0
 19 51  1  0
 19 52  1  0
 21 53  1  0
 22 54  1  0
 23 55  1  0
 24 56  1  0
 25 57  1  0
 29 58  1  0
 29 59  1  0
 30 60  1  0
 30 61  1  0
 30 62  1  0
M  END
$$$$
