@<TRIPOS>MOLECULE
*****
 31 34 0 0 0
SMALL
GASTEIGER

@<TRIPOS>ATOM
      1 O           1.5713   -3.5354    0.3845 O.2     1  UNL1       -0.2656
      2 C           1.7811   -2.2929    0.2641 C.ar    1  UNL1        0.2748
      3 N           3.0467   -1.8122    0.2076 N.ar    1  UNL1       -0.3203
      4 C           3.2716   -0.4811    0.0786 C.ar    1  UNL1        0.0524
      5 C           4.5300    0.0487    0.0175 C.ar    1  UNL1       -0.0237
      6 C           4.7391    1.4195   -0.1152 C.ar    1  UNL1        0.0199
      7 BR          6.5280    2.1248   -0.1974 Br      1  UNL1       -0.0502
      8 C           3.6719    2.2826   -0.1887 C.ar    1  UNL1       -0.0470
      9 C           2.4015    1.7600   -0.1282 C.ar    1  UNL1       -0.0495
     10 C           2.2030    0.3852    0.0048 C.ar    1  UNL1        0.0260
     11 C           0.9150   -0.1049    0.0623 C.ar    1  UNL1        0.1039
     12 N          -0.2806    0.4533    0.0189 N.ar    1  UNL1       -0.2269
     13 C          -1.2780   -0.4829    0.1166 C.ar    1  UNL1        0.1408
     14 C          -2.6947   -0.1530    0.0969 C.ar    1  UNL1        0.0356
     15 C          -3.0624    1.1867   -0.0280 C.ar    1  UNL1       -0.0497
     16 C          -4.3457    1.6247   -0.0592 C.ar    1  UNL1       -0.0610
     17 C          -5.3632    0.6850    0.0390 C.ar    1  UNL1       -0.0603
     18 C          -5.0516   -0.6409    0.1630 C.ar    1  UNL1       -0.0427
     19 C          -3.7155   -1.0547    0.1915 C.ar    1  UNL1        0.0516
     20 CL         -3.4189   -2.7456    0.3505 Cl      1  UNL1       -0.0828
     21 N          -0.6566   -1.6560    0.2235 N.ar    1  UNL1       -0.3336
     22 C           0.6867   -1.4584    0.1935 C.ar    1  UNL1        0.1322
     23 H           3.8596   -2.4585    0.2626 H       1  UNL1        0.1690
     24 H           5.3933   -0.5906    0.0714 H       1  UNL1        0.0649
     25 H           3.8176    3.3439   -0.2913 H       1  UNL1        0.0629
     26 H           1.5290    2.3897   -0.1811 H       1  UNL1        0.0625
     27 H          -2.2731    1.9549   -0.1079 H       1  UNL1        0.0625
     28 H          -4.5491    2.6776   -0.1581 H       1  UNL1        0.0618
     29 H          -6.3709    1.0827    0.0093 H       1  UNL1        0.0618
     30 H          -5.8376   -1.3502    0.2373 H       1  UNL1        0.0632
     31 H          -1.0476   -2.6018    0.3171 H       1  UNL1        0.1675
@<TRIPOS>BOND
     1     1     2    2
     2     2     3   ar
     3     3     4   ar
     4     4     5   ar
     5     5     6   ar
     6     6     7    1
     7     6     8   ar
     8     8     9   ar
     9     9    10   ar
    10    10    11   ar
    11    11    12   ar
    12    12    13   ar
    13    13    14    1
    14    14    15   ar
    15    15    16   ar
    16    16    17   ar
    17    17    18   ar
    18    18    19   ar
    19    19    20    1
    20    13    21   ar
    21    21    22   ar
    22    22     2   ar
    23    10     4   ar
    24    22    11   ar
    25    19    14   ar
    26     3    23    1
    27     5    24    1
    28     8    25    1
    29     9    26    1
    30    15    27    1
    31    16    28    1
    32    17    29    1
    33    18    30    1
    34    21    31    1
