@<TRIPOS>MOLECULE
*****
 26 27 0 0 0
SMALL
GASTEIGER

@<TRIPOS>ATOM
      1 C          -0.6004    0.3002   -0.7983 C.3     1  UNL1        0.0358
      2 N           0.2422   -0.2879    0.2258 N.pl3   1  UNL1       -0.3397
      3 C           1.6735   -0.1627    0.2807 C.ar    1  UNL1        0.0274
      4 C           2.4255   -0.7523    1.2916 C.ar    1  UNL1       -0.0408
      5 C           3.7971   -0.6038    1.3013 C.ar    1  UNL1       -0.0600
      6 C           4.4417    0.1169    0.3304 C.ar    1  UNL1       -0.0616
      7 C           3.7267    0.7173   -0.6905 C.ar    1  UNL1       -0.0600
      8 C           2.3554    0.5555   -0.6803 C.ar    1  UNL1       -0.0408
      9 C          -2.0302   -0.0306   -0.5447 C.ar    1  UNL1       -0.0123
     10 C          -2.7044    0.8885    0.2529 C.ar    1  UNL1       -0.0542
     11 C          -4.0377    0.7391    0.5896 C.ar    1  UNL1       -0.0433
     12 C          -4.6517   -0.3890    0.0767 C.ar    1  UNL1        0.0276
     13 N          -4.0124   -1.2851   -0.6951 N.ar    1  UNL1       -0.2629
     14 C          -2.7135   -1.1355   -1.0206 C.ar    1  UNL1        0.0322
     15 H          -0.3251   -0.2014   -1.7652 H       1  UNL1        0.0511
     16 H          -0.4780    1.3999   -0.8809 H       1  UNL1        0.0511
     17 H          -0.2059   -0.8490    0.9910 H       1  UNL1        0.1464
     18 H           1.8622   -1.3097    2.0316 H       1  UNL1        0.0636
     19 H           4.2848   -1.1016    2.1299 H       1  UNL1        0.0618
     20 H           5.5218    0.2110    0.3723 H       1  UNL1        0.0618
     21 H           4.2439    1.2909   -1.4626 H       1  UNL1        0.0618
     22 H           1.7725    1.0157   -1.4686 H       1  UNL1        0.0636
     23 H          -2.2064    1.7839    0.6566 H       1  UNL1        0.0622
     24 H          -4.5489    1.4713    1.2167 H       1  UNL1        0.0633
     25 H          -5.6931   -0.5692    0.2997 H       1  UNL1        0.0829
     26 H          -2.1396   -1.8124   -1.6330 H       1  UNL1        0.0833
@<TRIPOS>BOND
     1     1     2    1
     2     2     3    1
     3     3     4   ar
     4     4     5   ar
     5     5     6   ar
     6     6     7   ar
     7     7     8   ar
     8     1     9    1
     9     9    10   ar
    10    10    11   ar
    11    11    12   ar
    12    12    13   ar
    13    13    14   ar
    14     8     3   ar
    15    14     9   ar
    16     1    15    1
    17     1    16    1
    18     2    17    1
    19     4    18    1
    20     5    19    1
    21     6    20    1
    22     7    21    1
    23     8    22    1
    24    10    23    1
    25    11    24    1
    26    12    25    1
    27    14    26    1
