@<TRIPOS>MOLECULE
*****
 59 64 0 0 0
SMALL
GASTEIGER

@<TRIPOS>ATOM
      1 C          -2.0920   -4.9890    3.9914 C.3     1  UNL1        0.0168
      2 N          -1.5925   -3.9555    3.0588 N.ar    1  UNL1       -0.2934
      3 C          -1.8788   -2.6652    3.0926 C.ar    1  UNL1        0.3345
      4 O          -2.6275   -2.0965    3.8954 O.2     1  UNL1       -0.2459
      5 N          -1.2187   -1.9815    2.0713 N.ar    1  UNL1       -0.2601
      6 C          -1.3348   -0.5996    1.8710 C.ar    1  UNL1        0.0515
      7 C          -0.5436    0.3631    2.5522 C.ar    1  UNL1       -0.0374
      8 C          -0.7481    1.6923    2.3052 C.ar    1  UNL1       -0.0551
      9 C          -1.6485    2.1815    1.4593 C.ar    1  UNL1       -0.0279
     10 C          -1.9076    3.6305    1.0758 C.3     1  UNL1        0.0766
     11 C          -0.9559    4.5529    1.8046 C.3     1  UNL1       -0.0428
     12 C          -3.3357    3.9947    1.4794 C.3     1  UNL1       -0.0428
     13 C          -1.7496    3.7698   -0.3077 C.1     1  UNL1        0.0734
     14 N          -1.6051    3.8929   -1.5550 N.1     1  UNL1       -0.1957
     15 C          -2.4646    1.2501    0.7594 C.ar    1  UNL1       -0.0551
     16 C          -2.2451   -0.0701    1.0176 C.ar    1  UNL1       -0.0374
     17 C          -0.5307   -2.9328    1.4365 C.ar    1  UNL1        0.0856
     18 C           0.3209   -2.8984    0.3289 C.ar    1  UNL1        0.0269
     19 C           0.5770   -1.7309   -0.3060 C.ar    1  UNL1       -0.0427
     20 C           1.4229   -1.7021   -1.4156 C.ar    1  UNL1       -0.0157
     21 C           1.6822   -0.4702   -2.1219 C.ar    1  UNL1        0.0008
     22 C           0.6433    0.4975   -2.1586 C.ar    1  UNL1        0.0360
     23 N           0.8537    1.6398   -2.8062 N.ar    1  UNL1       -0.2544
     24 C           1.9529    2.0152   -3.4502 C.ar    1  UNL1        0.0710
     25 C           2.1464    3.1981   -4.1066 C.ar    1  UNL1       -0.0357
     26 C           3.3117    3.5378   -4.7585 C.ar    1  UNL1       -0.0597
     27 C           4.3358    2.5931   -4.7279 C.ar    1  UNL1       -0.0611
     28 C           4.1538    1.4106   -4.0775 C.ar    1  UNL1       -0.0525
     29 C           3.0036    1.0782   -3.4358 C.ar    1  UNL1        0.0010
     30 C           2.8056   -0.1010   -2.7761 C.ar    1  UNL1       -0.0434
     31 C           1.9852   -2.8969   -1.8409 C.ar    1  UNL1       -0.0519
     32 C           1.7123   -4.0687   -1.1799 C.ar    1  UNL1       -0.0351
     33 C           0.8844   -4.1096   -0.0906 C.ar    1  UNL1        0.0731
     34 N           0.6469   -5.2789    0.5168 N.ar    1  UNL1       -0.2528
     35 C          -0.1583   -5.3290    1.5684 C.ar    1  UNL1        0.0539
     36 C          -0.7492   -4.1507    2.0313 C.ar    1  UNL1        0.0886
     37 H          -3.1037   -5.3379    3.6686 H       1  UNL1        0.0457
     38 H          -1.3548   -5.7909    4.1256 H       1  UNL1        0.0457
     39 H          -2.1895   -4.4723    4.9807 H       1  UNL1        0.0457
     40 H           0.1790    0.0159    3.2328 H       1  UNL1        0.0638
     41 H          -0.1326    2.4434    2.8561 H       1  UNL1        0.0621
     42 H          -0.8294    5.4725    1.2129 H       1  UNL1        0.0248
     43 H          -1.4183    4.7345    2.7930 H       1  UNL1        0.0248
     44 H           0.0630    4.1463    1.9339 H       1  UNL1        0.0248
     45 H          -3.3425    4.6903    2.3416 H       1  UNL1        0.0248
     46 H          -3.8876    3.0912    1.6989 H       1  UNL1        0.0248
     47 H          -3.8028    4.4801    0.5915 H       1  UNL1        0.0248
     48 H          -3.1992    1.6365    0.0700 H       1  UNL1        0.0621
     49 H          -2.8804   -0.7833    0.4728 H       1  UNL1        0.0638
     50 H           0.1560   -0.8102    0.0210 H       1  UNL1        0.0631
     51 H          -0.2870    0.2781   -1.6591 H       1  UNL1        0.0836
     52 H           1.3115    3.8916   -4.0958 H       1  UNL1        0.0639
     53 H           3.3931    4.4848   -5.2471 H       1  UNL1        0.0618
     54 H           5.2368    2.8478   -5.2325 H       1  UNL1        0.0618
     55 H           4.9651    0.7087   -4.0816 H       1  UNL1        0.0624
     56 H           3.6276   -0.8651   -2.7550 H       1  UNL1        0.0631
     57 H           2.6477   -2.8833   -2.6892 H       1  UNL1        0.0624
     58 H           2.1802   -5.0037   -1.5506 H       1  UNL1        0.0639
     59 H          -0.3843   -6.2464    2.1104 H       1  UNL1        0.0851
@<TRIPOS>BOND
     1     1     2    1
     2     2     3   ar
     3     3     4    2
     4     3     5   ar
     5     5     6    1
     6     6     7   ar
     7     7     8   ar
     8     8     9   ar
     9     9    10    1
    10    10    11    1
    11    10    12    1
    12    10    13    1
    13    13    14    3
    14     9    15   ar
    15    15    16   ar
    16     5    17   ar
    17    17    18   ar
    18    18    19   ar
    19    19    20   ar
    20    20    21    1
    21    21    22   ar
    22    22    23   ar
    23    23    24   ar
    24    24    25   ar
    25    25    26   ar
    26    26    27   ar
    27    27    28   ar
    28    28    29   ar
    29    29    30   ar
    30    20    31   ar
    31    31    32   ar
    32    32    33   ar
    33    33    34   ar
    34    34    35   ar
    35    35    36   ar
    36    36     2   ar
    37    16     6   ar
    38    36    17   ar
    39    33    18   ar
    40    30    21   ar
    41    29    24   ar
    42     1    37    1
    43     1    38    1
    44     1    39    1
    45     7    40    1
    46     8    41    1
    47    11    42    1
    48    11    43    1
    49    11    44    1
    50    12    45    1
    51    12    46    1
    52    12    47    1
    53    15    48    1
    54    16    49    1
    55    19    50    1
    56    22    51    1
    57    25    52    1
    58    26    53    1
    59    27    54    1
    60    28    55    1
    61    30    56    1
    62    31    57    1
    63    32    58    1
    64    35    59    1
