
     RDKit          3D

 22 23  0  0  0  0  0  0  0  0999 V2000
   -3.6396    0.2049    0.0778 N   0  0  0  0  0  0  0  0  0  0  0  0
   -2.2663   -0.1075   -0.1321 C   0  0  0  0  0  0  0  0  0  0  0  0
   -2.0378   -1.3289   -0.7385 C   0  0  0  0  0  0  0  0  0  0  0  0
   -0.7293   -1.7297   -0.9890 C   0  0  0  0  0  0  0  0  0  0  0  0
    0.2781   -0.8761   -0.6138 C   0  0  0  0  0  0  0  0  0  0  0  0
    1.5727   -1.2272   -0.8393 N   0  0  0  0  0  0  0  0  0  0  0  0
    2.5641   -0.3871   -0.4702 C   0  0  0  0  0  0  0  0  0  0  0  0
    3.8922   -0.8253   -0.7396 N   0  0  0  0  0  0  0  0  0  0  0  0
    2.3234    0.8161    0.1279 N   0  0  0  0  0  0  0  0  0  0  0  0
    1.0495    1.2189    0.3778 C   0  0  0  0  0  0  0  0  0  0  0  0
    0.7887    2.4698    1.0000 N   0  0  0  0  0  0  0  0  0  0  0  0
    0.0545    0.3444   -0.0080 C   0  0  0  0  0  0  0  0  0  0  0  0
   -1.2414    0.7508    0.2446 C   0  0  0  0  0  0  0  0  0  0  0  0
   -4.4183    0.1482    0.7703 H   0  0  0  0  0  0  0  0  0  0  0  0
   -3.7163   -0.1753    1.0648 H   0  0  0  0  0  0  0  0  0  0  0  0
   -2.8395   -1.9954   -1.0308 H   0  0  0  0  0  0  0  0  0  0  0  0
   -0.4610   -2.6604   -1.4550 H   0  0  0  0  0  0  0  0  0  0  0  0
    4.2490   -1.0389    0.2257 H   0  0  0  0  0  0  0  0  0  0  0  0
    4.6581   -1.1507   -0.1076 H   0  0  0  0  0  0  0  0  0  0  0  0
   -0.0463    3.0550    0.8324 H   0  0  0  0  0  0  0  0  0  0  0  0
    1.5251    2.8083    1.6875 H   0  0  0  0  0  0  0  0  0  0  0  0
   -1.5595    1.6861    0.7149 H   0  0  0  0  0  0  0  0  0  0  0  0
  1  2  1  0
  2  3  2  0
  3  4  1  0
  4  5  2  0
  5  6  1  0
  6  7  2  0
  7  8  1  0
  7  9  1  0
  9 10  2  0
 10 11  1  0
 10 12  1  0
 12 13  2  0
 13  2  1  0
 12  5  1  0
  1 14  1  0
  1 15  1  0
  3 16  1  0
  4 17  1  0
  8 18  1  0
  8 19  1  0
 11 20  1  0
 11 21  1  0
 13 22  1  0
M  END
$$$$
