@<TRIPOS>MOLECULE
*****
 22 23 0 0 0
SMALL
GASTEIGER

@<TRIPOS>ATOM
      1 N          -3.6396    0.2049    0.0778 N.pl3   1  UNL1       -0.3579
      2 C          -2.2663   -0.1075   -0.1321 C.ar    1  UNL1        0.0253
      3 C          -2.0378   -1.3289   -0.7385 C.ar    1  UNL1       -0.0390
      4 C          -0.7293   -1.7297   -0.9890 C.ar    1  UNL1       -0.0338
      5 C           0.2781   -0.8761   -0.6138 C.ar    1  UNL1        0.0780
      6 N           1.5727   -1.2272   -0.8393 N.ar    1  UNL1       -0.2146
      7 C           2.5641   -0.3871   -0.4702 C.ar    1  UNL1        0.2148
      8 N           3.8922   -0.8253   -0.7396 N.pl3   1  UNL1       -0.3274
      9 N           2.3234    0.8161    0.1279 N.ar    1  UNL1       -0.1995
     10 C           1.0495    1.2189    0.3778 C.ar    1  UNL1        0.1291
     11 N           0.7887    2.4698    1.0000 N.pl3   1  UNL1       -0.3425
     12 C           0.0545    0.3444   -0.0080 C.ar    1  UNL1        0.0418
     13 C          -1.2414    0.7508    0.2446 C.ar    1  UNL1       -0.0286
     14 H          -4.4183    0.1482    0.7703 H       1  UNL1        0.1423
     15 H          -3.7163   -0.1753    1.0648 H       1  UNL1        0.1423
     16 H          -2.8395   -1.9954   -1.0308 H       1  UNL1        0.0637
     17 H          -0.4610   -2.6604   -1.4550 H       1  UNL1        0.0639
     18 H           4.2490   -1.0389    0.2257 H       1  UNL1        0.1452
     19 H           4.6581   -1.1507   -0.1076 H       1  UNL1        0.1452
     20 H          -0.0463    3.0550    0.8324 H       1  UNL1        0.1437
     21 H           1.5251    2.8083    1.6875 H       1  UNL1        0.1437
     22 H          -1.5595    1.6861    0.7149 H       1  UNL1        0.0644
@<TRIPOS>BOND
     1     1     2    1
     2     2     3   ar
     3     3     4   ar
     4     4     5   ar
     5     5     6   ar
     6     6     7   ar
     7     7     8    1
     8     7     9   ar
     9     9    10   ar
    10    10    11    1
    11    10    12   ar
    12    12    13   ar
    13    13     2   ar
    14    12     5   ar
    15     1    14    1
    16     1    15    1
    17     3    16    1
    18     4    17    1
    19     8    18    1
    20     8    19    1
    21    11    20    1
    22    11    21    1
    23    13    22    1
