
     RDKit          3D

 47 50  0  0  0  0  0  0  0  0999 V2000
   -5.6267   -1.1321   -0.5992 C   0  0  0  0  0  0  0  0  0  0  0  0
   -4.2135   -0.8088   -1.0342 C   0  0  0  0  0  0  0  0  0  0  0  0
   -3.3830   -2.0696   -0.9468 C   0  0  0  0  0  0  0  0  0  0  0  0
   -4.3030   -0.3879   -2.4860 C   0  0  0  0  0  0  0  0  0  0  0  0
   -3.6932    0.2139   -0.1867 N   0  0  0  0  0  0  0  0  0  0  0  0
   -2.3887    0.7708   -0.3014 C   0  0  0  0  0  0  0  0  0  0  0  0
   -1.6418    0.3328   -1.2130 O   0  0  0  0  0  0  0  0  0  0  0  0
   -1.9792    1.8128    0.6318 C   0  0  0  0  0  0  0  0  0  0  0  0
   -2.7385    2.7901    1.2436 C   0  0  0  0  0  0  0  0  0  0  0  0
   -1.9554    3.5464    2.0347 N   0  0  0  0  0  0  0  0  0  0  0  0
   -0.6880    3.0951    1.9645 C   0  0  0  0  0  0  0  0  0  0  0  0
    0.4834    3.4478    2.5200 N   0  0  0  0  0  0  0  0  0  0  0  0
    1.6133    2.7616    2.2285 C   0  0  0  0  0  0  0  0  0  0  0  0
    1.6188    1.6891    1.3652 C   0  0  0  0  0  0  0  0  0  0  0  0
    2.8674    0.9624    1.0690 C   0  0  0  0  0  0  0  0  0  0  0  0
    4.0945    1.2109    1.5533 N   0  0  0  0  0  0  0  0  0  0  0  0
    4.9732    0.3311    1.0486 N   0  0  0  0  0  0  0  0  0  0  0  0
    4.3387   -0.5063    0.2275 C   0  0  0  0  0  0  0  0  0  0  0  0
    4.7324   -1.5812   -0.5468 C   0  0  0  0  0  0  0  0  0  0  0  0
    6.1430   -1.9968   -0.5566 C   0  0  0  0  0  0  0  0  0  0  0  0
    6.8370   -1.0630   -1.3605 O   0  0  0  0  0  0  0  0  0  0  0  0
    3.8306   -2.2786   -1.3174 C   0  0  0  0  0  0  0  0  0  0  0  0
    2.5130   -1.8835   -1.3047 C   0  0  0  0  0  0  0  0  0  0  0  0
    2.0982   -0.7967   -0.5256 C   0  0  0  0  0  0  0  0  0  0  0  0
    3.0168   -0.1173    0.2345 C   0  0  0  0  0  0  0  0  0  0  0  0
    0.4485    1.3359    0.8096 N   0  0  0  0  0  0  0  0  0  0  0  0
   -0.6902    2.0218    1.0988 C   0  0  0  0  0  0  0  0  0  0  0  0
   -6.0744   -1.9011   -1.2384 H   0  0  0  0  0  0  0  0  0  0  0  0
   -5.6653   -1.4551    0.4662 H   0  0  0  0  0  0  0  0  0  0  0  0
   -6.2796   -0.2259   -0.6847 H   0  0  0  0  0  0  0  0  0  0  0  0
   -2.5075   -1.8575   -0.3000 H   0  0  0  0  0  0  0  0  0  0  0  0
   -3.0849   -2.4222   -1.9573 H   0  0  0  0  0  0  0  0  0  0  0  0
   -3.9849   -2.8560   -0.4553 H   0  0  0  0  0  0  0  0  0  0  0  0
   -4.4584   -1.3202   -3.0930 H   0  0  0  0  0  0  0  0  0  0  0  0
   -5.2334    0.2141   -2.6633 H   0  0  0  0  0  0  0  0  0  0  0  0
   -3.4618    0.2058   -2.8396 H   0  0  0  0  0  0  0  0  0  0  0  0
   -4.2932    0.5929    0.5754 H   0  0  0  0  0  0  0  0  0  0  0  0
   -3.8064    2.8817    1.0700 H   0  0  0  0  0  0  0  0  0  0  0  0
   -2.2531    4.3676    2.6275 H   0  0  0  0  0  0  0  0  0  0  0  0
    2.5820    3.0243    2.6643 H   0  0  0  0  0  0  0  0  0  0  0  0
    6.0004    0.2841    1.2485 H   0  0  0  0  0  0  0  0  0  0  0  0
    6.5976   -2.0209    0.4532 H   0  0  0  0  0  0  0  0  0  0  0  0
    6.2283   -2.9608   -1.0866 H   0  0  0  0  0  0  0  0  0  0  0  0
    6.4473   -0.1635   -1.2675 H   0  0  0  0  0  0  0  0  0  0  0  0
    4.1051   -3.1275   -1.9371 H   0  0  0  0  0  0  0  0  0  0  0  0
    1.7828   -2.4055   -1.8944 H   0  0  0  0  0  0  0  0  0  0  0  0
    1.0516   -0.5548   -0.5731 H   0  0  0  0  0  0  0  0  0  0  0  0
  1  2  1  0
  2  3  1  0
  2  4  1  0
  2  5  1  0
  5  6  1  0
  6  7  2  0
  6  8  1  0
  8  9  2  0
  9 10  1  0
 10 11  1  0
 11 12  2  0
 12 13  1  0
 13 14  2  0
 14 15  1  0
 15 16  2  0
 16 17  1  0
 17 18  1  0
 18 19  2  0
 19 20  1  0
 20 21  1  0
 19 22  1  0
 22 23  2  0
 23 24  1  0
 24 25  2  0
 14 26  1  0
 26 27  2  0
 27  8  1  0
 27 11  1  0
 25 15  1  0
 25 18  1  0
  1 28  1  0
  1 29  1  0
  1 30  1  0
  3 31  1  0
  3 32  1  0
  3 33  1  0
  4 34  1  0
  4 35  1  0
  4 36  1  0
  5 37  1  0
  9 38  1  0
 10 39  1  0
 13 40  1  0
 17 41  1  0
 20 42  1  0
 20 43  1  0
 21 44  1  0
 22 45  1  0
 23 46  1  0
 24 47  1  0
M  END
$$$$
