@<TRIPOS>MOLECULE
*****
 47 50 0 0 0
SMALL
GASTEIGER

@<TRIPOS>ATOM
      1 C          -5.6267   -1.1321   -0.5992 C.3     1  UNL1       -0.0442
      2 C          -4.2135   -0.8088   -1.0342 C.3     1  UNL1        0.0265
      3 C          -3.3830   -2.0696   -0.9468 C.3     1  UNL1       -0.0442
      4 C          -4.3030   -0.3879   -2.4860 C.3     1  UNL1       -0.0442
      5 N          -3.6932    0.2139   -0.1867 N.am    1  UNL1       -0.3065
      6 C          -2.3887    0.7708   -0.3014 C.2     1  UNL1        0.2480
      7 O          -1.6418    0.3328   -1.2130 O.2     1  UNL1       -0.2701
      8 C          -1.9792    1.8128    0.6318 C.ar    1  UNL1        0.0815
      9 C          -2.7385    2.7901    1.2436 C.ar    1  UNL1        0.0178
     10 N          -1.9554    3.5464    2.0347 N.ar    1  UNL1       -0.3438
     11 C          -0.6880    3.0951    1.9645 C.ar    1  UNL1        0.1574
     12 N           0.4834    3.4478    2.5200 N.ar    1  UNL1       -0.2338
     13 C           1.6133    2.7616    2.2285 C.ar    1  UNL1        0.0575
     14 C           1.6188    1.6891    1.3652 C.ar    1  UNL1        0.1103
     15 C           2.8674    0.9624    1.0690 C.ar    1  UNL1        0.1198
     16 N           4.0945    1.2109    1.5533 N.ar    1  UNL1       -0.1711
     17 N           4.9732    0.3311    1.0486 N.ar    1  UNL1       -0.2760
     18 C           4.3387   -0.5063    0.2275 C.ar    1  UNL1        0.0717
     19 C           4.7324   -1.5812   -0.5468 C.ar    1  UNL1        0.0032
     20 C           6.1430   -1.9968   -0.5566 C.3     1  UNL1        0.0712
     21 O           6.8370   -1.0630   -1.3605 O.3     1  UNL1       -0.3903
     22 C           3.8306   -2.2786   -1.3174 C.ar    1  UNL1       -0.0544
     23 C           2.5130   -1.8835   -1.3047 C.ar    1  UNL1       -0.0607
     24 C           2.0982   -0.7967   -0.5256 C.ar    1  UNL1       -0.0504
     25 C           3.0168   -0.1173    0.2345 C.ar    1  UNL1        0.0293
     26 N           0.4485    1.3359    0.8096 N.ar    1  UNL1       -0.2397
     27 C          -0.6902    2.0218    1.0988 C.ar    1  UNL1        0.1202
     28 H          -6.0744   -1.9011   -1.2384 H       1  UNL1        0.0250
     29 H          -5.6653   -1.4551    0.4662 H       1  UNL1        0.0250
     30 H          -6.2796   -0.2259   -0.6847 H       1  UNL1        0.0250
     31 H          -2.5075   -1.8575   -0.3000 H       1  UNL1        0.0250
     32 H          -3.0849   -2.4222   -1.9573 H       1  UNL1        0.0250
     33 H          -3.9849   -2.8560   -0.4553 H       1  UNL1        0.0250
     34 H          -4.4584   -1.3202   -3.0930 H       1  UNL1        0.0250
     35 H          -5.2334    0.2141   -2.6633 H       1  UNL1        0.0250
     36 H          -3.4618    0.2058   -2.8396 H       1  UNL1        0.0250
     37 H          -4.2932    0.5929    0.5754 H       1  UNL1        0.1495
     38 H          -3.8064    2.8817    1.0700 H       1  UNL1        0.0816
     39 H          -2.2531    4.3676    2.6275 H       1  UNL1        0.1668
     40 H           2.5820    3.0243    2.6643 H       1  UNL1        0.0853
     41 H           6.0004    0.2841    1.2485 H       1  UNL1        0.1889
     42 H           6.5976   -2.0209    0.4532 H       1  UNL1        0.0608
     43 H           6.2283   -2.9608   -1.0866 H       1  UNL1        0.0608
     44 H           6.4473   -0.1635   -1.2675 H       1  UNL1        0.2098
     45 H           4.1051   -3.1275   -1.9371 H       1  UNL1        0.0622
     46 H           1.7828   -2.4055   -1.8944 H       1  UNL1        0.0618
     47 H           1.0516   -0.5548   -0.5731 H       1  UNL1        0.0625
@<TRIPOS>BOND
     1     1     2    1
     2     2     3    1
     3     2     4    1
     4     2     5    1
     5     5     6   am
     6     6     7    2
     7     6     8    1
     8     8     9   ar
     9     9    10   ar
    10    10    11   ar
    11    11    12   ar
    12    12    13   ar
    13    13    14   ar
    14    14    15    1
    15    15    16   ar
    16    16    17   ar
    17    17    18   ar
    18    18    19   ar
    19    19    20    1
    20    20    21    1
    21    19    22   ar
    22    22    23   ar
    23    23    24   ar
    24    24    25   ar
    25    14    26   ar
    26    26    27   ar
    27    27     8   ar
    28    27    11   ar
    29    25    15   ar
    30    25    18   ar
    31     1    28    1
    32     1    29    1
    33     1    30    1
    34     3    31    1
    35     3    32    1
    36     3    33    1
    37     4    34    1
    38     4    35    1
    39     4    36    1
    40     5    37    1
    41     9    38    1
    42    10    39    1
    43    13    40    1
    44    17    41    1
    45    20    42    1
    46    20    43    1
    47    21    44    1
    48    22    45    1
    49    23    46    1
    50    24    47    1
