
     RDKit          3D

 76 80  0  0  0  0  0  0  0  0999 V2000
   -0.3976   -3.1650    3.0018 O   0  0  0  0  0  0  0  0  0  0  0  0
   -0.0782   -2.8288    1.8213 C   0  0  0  0  0  0  0  0  0  0  0  0
    1.1426   -3.1716    1.1071 C   0  0  0  0  0  0  0  0  0  0  0  0
    2.1155   -3.8639    1.5256 O   0  0  0  0  0  0  0  0  0  0  0  0
    0.9941   -2.5421   -0.1835 N   0  0  0  0  0  0  0  0  0  0  0  0
    1.9902   -2.6339   -1.2222 C   0  0  0  0  0  0  0  0  0  0  0  0
    2.9226   -1.4931   -1.2264 C   0  0  0  0  0  0  0  0  0  0  0  0
    4.0585   -1.4301   -0.4641 C   0  0  0  0  0  0  0  0  0  0  0  0
    4.9389   -0.3806   -0.4779 C   0  0  0  0  0  0  0  0  0  0  0  0
    4.6705    0.6994   -1.3202 C   0  0  0  0  0  0  0  0  0  0  0  0
    5.4532    1.7363   -1.3983 O   0  0  0  0  0  0  0  0  0  0  0  0
    6.4194    2.5917   -1.2379 C   0  0  0  0  0  0  0  0  0  0  0  0
    7.8136    2.0578   -1.5619 C   0  0  0  0  0  0  0  0  0  0  0  0
    8.1403    1.0057   -0.7616 O   0  0  0  0  0  0  0  0  0  0  0  0
    8.1724    1.2953    0.6001 C   0  0  0  0  0  0  0  0  0  0  0  0
    8.6352    0.0444    1.3197 C   0  0  0  0  0  0  0  0  0  0  0  0
    8.7192    0.1654    2.6763 O   0  0  0  0  0  0  0  0  0  0  0  0
    9.5734    1.1526    3.0792 C   0  0  0  0  0  0  0  0  0  0  0  0
   10.9731    0.9019    2.5772 C   0  0  0  0  0  0  0  0  0  0  0  0
   11.4005   -0.3159    3.0545 F   0  0  0  0  0  0  0  0  0  0  0  0
    3.5167    0.6665   -2.1127 C   0  0  0  0  0  0  0  0  0  0  0  0
    2.6675   -0.4062   -2.0604 C   0  0  0  0  0  0  0  0  0  0  0  0
   -0.2595   -1.8587   -0.2177 C   0  0  0  0  0  0  0  0  0  0  0  0
   -0.8829   -1.0913   -1.1764 C   0  0  0  0  0  0  0  0  0  0  0  0
   -2.1180   -0.5053   -0.9634 C   0  0  0  0  0  0  0  0  0  0  0  0
   -2.7891   -0.6600    0.2255 C   0  0  0  0  0  0  0  0  0  0  0  0
   -4.3409    0.1385    0.4636 S   0  0  0  0  0  6  0  0  0  0  0  0
   -5.1190   -0.6890    1.4859 O   0  0  0  0  0  0  0  0  0  0  0  0
   -4.1723    1.4794    1.0640 O   0  0  0  0  0  0  0  0  0  0  0  0
   -5.2100    0.0650   -0.9737 N   0  0  0  0  0  0  0  0  0  0  0  0
   -5.5050   -1.2568   -1.3982 C   0  0  0  0  0  0  0  0  0  0  0  0
   -6.9530   -1.0310   -1.0361 C   0  0  0  0  0  0  0  0  0  0  0  0
   -6.5900    0.3983   -1.0097 C   0  0  1  0  0  0  0  0  0  0  0  0
   -7.1017    1.2906    0.0798 C   0  0  0  0  0  0  0  0  0  0  0  0
   -8.3808    1.6759    0.0670 O   0  0  0  0  0  0  0  0  0  0  0  0
   -9.6594    1.3048    0.1284 C   0  0  0  0  0  0  0  0  0  0  0  0
  -10.6889    2.2627    0.0386 C   0  0  0  0  0  0  0  0  0  0  0  0
  -11.9855    1.9128    0.0993 C   0  0  0  0  0  0  0  0  0  0  0  0
  -12.3374    0.5729    0.2531 C   0  0  0  0  0  0  0  0  0  0  0  0
  -11.3667   -0.3782    0.3430 C   0  0  0  0  0  0  0  0  0  0  0  0
  -10.0339    0.0017    0.2791 C   0  0  0  0  0  0  0  0  0  0  0  0
   -2.1852   -1.4185    1.1865 C   0  0  0  0  0  0  0  0  0  0  0  0
   -0.9308   -2.0093    0.9703 C   0  0  0  0  0  0  0  0  0  0  0  0
    1.4163   -2.5920   -2.1959 H   0  0  0  0  0  0  0  0  0  0  0  0
    2.4997   -3.6207   -1.2444 H   0  0  0  0  0  0  0  0  0  0  0  0
    4.2660   -2.2835    0.1970 H   0  0  0  0  0  0  0  0  0  0  0  0
    5.8259   -0.3742    0.1419 H   0  0  0  0  0  0  0  0  0  0  0  0
    6.4992    3.0060   -0.1855 H   0  0  0  0  0  0  0  0  0  0  0  0
    6.3054    3.5615   -1.8542 H   0  0  0  0  0  0  0  0  0  0  0  0
    7.7384    1.7138   -2.6321 H   0  0  0  0  0  0  0  0  0  0  0  0
    8.5599    2.8859   -1.5583 H   0  0  0  0  0  0  0  0  0  0  0  0
    8.7772    2.1839    0.8115 H   0  0  0  0  0  0  0  0  0  0  0  0
    7.1339    1.4669    0.9281 H   0  0  0  0  0  0  0  0  0  0  0  0
    9.6231   -0.2126    0.8506 H   0  0  0  0  0  0  0  0  0  0  0  0
    7.9684   -0.8001    1.0225 H   0  0  0  0  0  0  0  0  0  0  0  0
    9.6227    1.1845    4.2150 H   0  0  0  0  0  0  0  0  0  0  0  0
    9.2661    2.1800    2.7238 H   0  0  0  0  0  0  0  0  0  0  0  0
   11.6129    1.7220    3.0243 H   0  0  0  0  0  0  0  0  0  0  0  0
   11.0216    0.9973    1.4834 H   0  0  0  0  0  0  0  0  0  0  0  0
    3.2975    1.5111   -2.7740 H   0  0  0  0  0  0  0  0  0  0  0  0
    1.7972   -0.3606   -2.7147 H   0  0  0  0  0  0  0  0  0  0  0  0
   -0.3873   -0.9530   -2.1158 H   0  0  0  0  0  0  0  0  0  0  0  0
   -2.6040    0.1049   -1.7253 H   0  0  0  0  0  0  0  0  0  0  0  0
   -5.0179   -2.0986   -0.8582 H   0  0  0  0  0  0  0  0  0  0  0  0
   -5.3436   -1.3281   -2.5254 H   0  0  0  0  0  0  0  0  0  0  0  0
   -7.1572   -1.5584   -0.0855 H   0  0  0  0  0  0  0  0  0  0  0  0
   -7.6031   -1.3814   -1.8774 H   0  0  0  0  0  0  0  0  0  0  0  0
   -6.8246    0.8799   -2.0075 H   0  0  0  0  0  0  0  0  0  0  0  0
   -6.7842    0.9103    1.0975 H   0  0  0  0  0  0  0  0  0  0  0  0
   -6.4564    2.2348   -0.0004 H   0  0  0  0  0  0  0  0  0  0  0  0
  -10.3808    3.2789   -0.0775 H   0  0  0  0  0  0  0  0  0  0  0  0
  -12.8225    2.6269    0.0396 H   0  0  0  0  0  0  0  0  0  0  0  0
  -13.3914    0.3221    0.2976 H   0  0  0  0  0  0  0  0  0  0  0  0
  -11.6774   -1.4150    0.4585 H   0  0  0  0  0  0  0  0  0  0  0  0
   -9.3415   -0.8259    0.3767 H   0  0  0  0  0  0  0  0  0  0  0  0
   -2.6709   -1.5549    2.1197 H   0  0  0  0  0  0  0  0  0  0  0  0
  1  2  2  0
  2  3  1  0
  3  4  2  0
  3  5  1  0
  5  6  1  0
  6  7  1  0
  7  8  2  0
  8  9  1  0
  9 10  2  0
 10 11  1  0
 11 12  1  0
 12 13  1  0
 13 14  1  0
 14 15  1  0
 15 16  1  0
 16 17  1  0
 17 18  1  0
 18 19  1  0
 19 20  1  0
 10 21  1  0
 21 22  2  0
  5 23  1  0
 23 24  2  0
 24 25  1  0
 25 26  2  0
 26 27  1  0
 27 28  2  0
 27 29  2  0
 27 30  1  0
 30 31  1  0
 31 32  1  0
 32 33  1  0
 33 34  1  0
 34 35  1  0
 35 36  1  0
 36 37  2  0
 37 38  1  0
 38 39  2  0
 39 40  1  0
 40 41  2  0
 26 42  1  0
 42 43  2  0
 43  2  1  0
 22  7  1  0
 43 23  1  0
 33 30  1  0
 41 36  1  0
  6 44  1  0
  6 45  1  0
  8 46  1  0
  9 47  1  0
 12 48  1  0
 12 49  1  0
 13 50  1  0
 13 51  1  0
 15 52  1  0
 15 53  1  0
 16 54  1  0
 16 55  1  0
 18 56  1  0
 18 57  1  0
 19 58  1  0
 19 59  1  0
 21 60  1  0
 22 61  1  0
 24 62  1  0
 25 63  1  0
 31 64  1  0
 31 65  1  0
 32 66  1  0
 32 67  1  0
 33 68  1  6
 34 69  1  0
 34 70  1  0
 37 71  1  0
 38 72  1  0
 39 73  1  0
 40 74  1  0
 41 75  1  0
 42 76  1  0
M  END
$$$$
