@<TRIPOS>MOLECULE
*****
 76 80 0 0 0
SMALL
GASTEIGER

@<TRIPOS>ATOM
      1 O          -0.3976   -3.1650    3.0018 O.2     1  UNL1       -0.2817
      2 C          -0.0782   -2.8288    1.8213 C.2     1  UNL1        0.2496
      3 C           1.1426   -3.1716    1.1071 C.2     1  UNL1        0.2915
      4 O           2.1155   -3.8639    1.5256 O.2     1  UNL1       -0.2661
      5 N           0.9941   -2.5421   -0.1835 N.am    1  UNL1       -0.2598
      6 C           1.9902   -2.6339   -1.2222 C.3     1  UNL1        0.0452
      7 C           2.9226   -1.4931   -1.2264 C.ar    1  UNL1       -0.0295
      8 C           4.0585   -1.4301   -0.4641 C.ar    1  UNL1       -0.0536
      9 C           4.9389   -0.3806   -0.4779 C.ar    1  UNL1       -0.0196
     10 C           4.6705    0.6994   -1.3202 C.ar    1  UNL1        0.1206
     11 O           5.4532    1.7363   -1.3983 O.3     1  UNL1       -0.4897
     12 C           6.4194    2.5917   -1.2379 C.3     1  UNL1        0.1128
     13 C           7.8136    2.0578   -1.5619 C.3     1  UNL1        0.0818
     14 O           8.1403    1.0057   -0.7616 O.3     1  UNL1       -0.3742
     15 C           8.1724    1.2953    0.6001 C.3     1  UNL1        0.0711
     16 C           8.6352    0.0444    1.3197 C.3     1  UNL1        0.0711
     17 O           8.7192    0.1654    2.6763 O.3     1  UNL1       -0.3750
     18 C           9.5734    1.1526    3.0792 C.3     1  UNL1        0.0759
     19 C          10.9731    0.9019    2.5772 C.3     1  UNL1        0.1134
     20 F          11.4005   -0.3159    3.0545 F       1  UNL1       -0.2467
     21 C           3.5167    0.6665   -2.1127 C.ar    1  UNL1       -0.0196
     22 C           2.6675   -0.4062   -2.0604 C.ar    1  UNL1       -0.0536
     23 C          -0.2595   -1.8587   -0.2177 C.ar    1  UNL1        0.0481
     24 C          -0.8829   -1.0913   -1.1764 C.ar    1  UNL1       -0.0377
     25 C          -2.1180   -0.5053   -0.9634 C.ar    1  UNL1       -0.0335
     26 C          -2.7891   -0.6600    0.2255 C.ar    1  UNL1        0.1063
     27 S          -4.3409    0.1385    0.4636 S.O2    1  UNL1        0.0612
     28 O          -5.1190   -0.6890    1.4859 O.2     1  UNL1       -0.1528
     29 O          -4.1723    1.4794    1.0640 O.2     1  UNL1       -0.1528
     30 N          -5.2100    0.0650   -0.9737 N.3     1  UNL1       -0.1702
     31 C          -5.5050   -1.2568   -1.3982 C.3     1  UNL1        0.0225
     32 C          -6.9530   -1.0310   -1.0361 C.3     1  UNL1       -0.0180
     33 C          -6.5900    0.3983   -1.0097 C.3     1  UNL1        0.0671
     34 C          -7.1017    1.2906    0.0798 C.3     1  UNL1        0.1067
     35 O          -8.3808    1.6759    0.0670 O.3     1  UNL1       -0.4904
     36 C          -9.6594    1.3048    0.1284 C.ar    1  UNL1        0.1206
     37 C         -10.6889    2.2627    0.0386 C.ar    1  UNL1       -0.0199
     38 C         -11.9855    1.9128    0.0993 C.ar    1  UNL1       -0.0583
     39 C         -12.3374    0.5729    0.2531 C.ar    1  UNL1       -0.0615
     40 C         -11.3667   -0.3782    0.3430 C.ar    1  UNL1       -0.0583
     41 C         -10.0339    0.0017    0.2791 C.ar    1  UNL1       -0.0199
     42 C          -2.1852   -1.4185    1.1865 C.ar    1  UNL1       -0.0226
     43 C          -0.9308   -2.0093    0.9703 C.ar    1  UNL1        0.0502
     44 H           1.4163   -2.5920   -2.1959 H       1  UNL1        0.0518
     45 H           2.4997   -3.6207   -1.2444 H       1  UNL1        0.0518
     46 H           4.2660   -2.2835    0.1970 H       1  UNL1        0.0622
     47 H           5.8259   -0.3742    0.1419 H       1  UNL1        0.0654
     48 H           6.4992    3.0060   -0.1855 H       1  UNL1        0.0720
     49 H           6.3054    3.5615   -1.8542 H       1  UNL1        0.0720
     50 H           7.7384    1.7138   -2.6321 H       1  UNL1        0.0594
     51 H           8.5599    2.8859   -1.5583 H       1  UNL1        0.0594
     52 H           8.7772    2.1839    0.8115 H       1  UNL1        0.0583
     53 H           7.1339    1.4669    0.9281 H       1  UNL1        0.0583
     54 H           9.6231   -0.2126    0.8506 H       1  UNL1        0.0583
     55 H           7.9684   -0.8001    1.0225 H       1  UNL1        0.0583
     56 H           9.6227    1.1845    4.2150 H       1  UNL1        0.0585
     57 H           9.2661    2.1800    2.7238 H       1  UNL1        0.0585
     58 H          11.6129    1.7220    3.0243 H       1  UNL1        0.0638
     59 H          11.0216    0.9973    1.4834 H       1  UNL1        0.0638
     60 H           3.2975    1.5111   -2.7740 H       1  UNL1        0.0654
     61 H           1.7972   -0.3606   -2.7147 H       1  UNL1        0.0622
     62 H          -0.3873   -0.9530   -2.1158 H       1  UNL1        0.0637
     63 H          -2.6040    0.1049   -1.7253 H       1  UNL1        0.0638
     64 H          -5.0179   -2.0986   -0.8582 H       1  UNL1        0.0444
     65 H          -5.3436   -1.3281   -2.5254 H       1  UNL1        0.0444
     66 H          -7.1572   -1.5584   -0.0855 H       1  UNL1        0.0295
     67 H          -7.6031   -1.3814   -1.8774 H       1  UNL1        0.0295
     68 H          -6.8246    0.8799   -2.0075 H       1  UNL1        0.0514
     69 H          -6.7842    0.9103    1.0975 H       1  UNL1        0.0713
     70 H          -6.4564    2.2348   -0.0004 H       1  UNL1        0.0713
     71 H         -10.3808    3.2789   -0.0775 H       1  UNL1        0.0654
     72 H         -12.8225    2.6269    0.0396 H       1  UNL1        0.0619
     73 H         -13.3914    0.3221    0.2976 H       1  UNL1        0.0618
     74 H         -11.6774   -1.4150    0.4585 H       1  UNL1        0.0619
     75 H          -9.3415   -0.8259    0.3767 H       1  UNL1        0.0654
     76 H          -2.6709   -1.5549    2.1197 H       1  UNL1        0.0645
@<TRIPOS>BOND
     1     1     2    2
     2     2     3    1
     3     3     4    2
     4     3     5   am
     5     5     6    1
     6     6     7    1
     7     7     8   ar
     8     8     9   ar
     9     9    10   ar
    10    10    11    1
    11    11    12    1
    12    12    13    1
    13    13    14    1
    14    14    15    1
    15    15    16    1
    16    16    17    1
    17    17    18    1
    18    18    19    1
    19    19    20    1
    20    10    21   ar
    21    21    22   ar
    22     5    23    1
    23    23    24   ar
    24    24    25   ar
    25    25    26   ar
    26    26    27    1
    27    27    28    2
    28    27    29    2
    29    27    30    1
    30    30    31    1
    31    31    32    1
    32    32    33    1
    33    33    34    1
    34    34    35    1
    35    35    36    1
    36    36    37   ar
    37    37    38   ar
    38    38    39   ar
    39    39    40   ar
    40    40    41   ar
    41    26    42   ar
    42    42    43   ar
    43    43     2    1
    44    22     7   ar
    45    43    23   ar
    46    33    30    1
    47    41    36   ar
    48     6    44    1
    49     6    45    1
    50     8    46    1
    51     9    47    1
    52    12    48    1
    53    12    49    1
    54    13    50    1
    55    13    51    1
    56    15    52    1
    57    15    53    1
    58    16    54    1
    59    16    55    1
    60    18    56    1
    61    18    57    1
    62    19    58    1
    63    19    59    1
    64    21    60    1
    65    22    61    1
    66    24    62    1
    67    25    63    1
    68    31    64    1
    69    31    65    1
    70    32    66    1
    71    32    67    1
    72    33    68    1
    73    34    69    1
    74    34    70    1
    75    37    71    1
    76    38    72    1
    77    39    73    1
    78    40    74    1
    79    41    75    1
    80    42    76    1
