@<TRIPOS>MOLECULE
*****
 57 62 0 0 0
SMALL
GASTEIGER

@<TRIPOS>ATOM
      1 N           4.0381   -3.3216    0.2847 N.3     1  UNL1       -0.3277
      2 C           3.8705   -2.2240    1.1799 C.3     1  UNL1        0.0196
      3 C           3.0487   -1.0910    0.4601 C.3     1  UNL1        0.0726
      4 C           3.0259    0.0621    1.3552 C.3     1  UNL1       -0.0074
      5 C           2.5115    1.3274    0.9579 C.3     1  UNL1        0.0257
      6 N           1.1708    1.7167    0.6209 N.ar    1  UNL1       -0.3459
      7 C          -0.0434    1.1825    0.8634 C.ar    1  UNL1        0.0136
      8 C          -1.0082    1.9960    0.3246 C.ar    1  UNL1        0.0131
      9 C          -0.3174    3.0769   -0.2697 C.ar    1  UNL1        0.0077
     10 C          -0.7143    4.2329   -0.9718 C.ar    1  UNL1       -0.0520
     11 C           0.1694    5.1618   -1.4616 C.ar    1  UNL1       -0.0611
     12 C           1.4911    4.9777   -1.2724 C.ar    1  UNL1       -0.0598
     13 C           1.8904    3.8521   -0.5889 C.ar    1  UNL1       -0.0376
     14 C           0.9941    2.8967   -0.0844 C.ar    1  UNL1        0.0497
     15 C          -2.4866    1.9296    0.2371 C.2     1  UNL1        0.0590
     16 C          -3.1237    0.7764   -0.1983 C.2     1  UNL1        0.0590
     17 C          -4.5585    1.0170   -0.1812 C.2     1  UNL1        0.2519
     18 O          -5.4905    0.2013   -0.5148 O.2     1  UNL1       -0.2697
     19 N          -4.7835    2.3088    0.2632 N.am    1  UNL1       -0.2483
     20 C          -3.5476    2.8863    0.5240 C.2     1  UNL1        0.2519
     21 O          -3.4359    4.0804    0.9503 O.2     1  UNL1       -0.2697
     22 C          -2.3106   -0.4197   -0.5353 C.ar    1  UNL1        0.0131
     23 C          -1.1616   -0.5536   -1.2840 C.ar    1  UNL1        0.0137
     24 N          -0.7409   -1.8261   -1.1745 N.ar    1  UNL1       -0.3438
     25 C          -1.6234   -2.5270   -0.3635 C.ar    1  UNL1        0.0497
     26 C          -1.6797   -3.8551    0.0718 C.ar    1  UNL1       -0.0376
     27 C          -2.6899   -4.3043    0.8901 C.ar    1  UNL1       -0.0598
     28 C          -3.6737   -3.4606    1.3043 C.ar    1  UNL1       -0.0611
     29 C          -3.6126   -2.1608    0.8740 C.ar    1  UNL1       -0.0520
     30 C          -2.5925   -1.6846    0.0395 C.ar    1  UNL1        0.0077
     31 C           0.4619   -2.4883   -1.6374 C.3     1  UNL1        0.0467
     32 C           1.7575   -1.8319   -1.2549 C.3     1  UNL1        0.0660
     33 O           1.8455   -1.6055    0.1141 O.3     1  UNL1       -0.3735
     34 H           4.7612   -3.1085   -0.4104 H       1  UNL1        0.1183
     35 H           4.0952   -4.2459    0.7348 H       1  UNL1        0.1183
     36 H           3.4043   -2.4588    2.1528 H       1  UNL1        0.0447
     37 H           4.8641   -1.7895    1.3978 H       1  UNL1        0.0447
     38 H           3.6614   -0.9118   -0.4361 H       1  UNL1        0.0609
     39 H           2.6106   -0.1831    2.3851 H       1  UNL1        0.0308
     40 H           4.1357    0.2359    1.6447 H       1  UNL1        0.0308
     41 H           2.9892    2.1674    1.6170 H       1  UNL1        0.0492
     42 H           3.1897    1.5483    0.0262 H       1  UNL1        0.0492
     43 H          -0.1776    0.2015    1.4539 H       1  UNL1        0.0815
     44 H          -1.7707    4.3698   -1.1297 H       1  UNL1        0.0624
     45 H          -0.2114    6.0254   -1.9909 H       1  UNL1        0.0618
     46 H           2.2124    5.6910   -1.6456 H       1  UNL1        0.0618
     47 H           2.9566    3.7188   -0.4458 H       1  UNL1        0.0638
     48 H          -5.7400    2.7247    0.3667 H       1  UNL1        0.1581
     49 H          -0.6416    0.2386   -1.9410 H       1  UNL1        0.0815
     50 H          -0.9115   -4.5284   -0.2486 H       1  UNL1        0.0638
     51 H          -2.6886   -5.3495    1.2015 H       1  UNL1        0.0618
     52 H          -4.4782   -3.7779    1.9443 H       1  UNL1        0.0618
     53 H          -4.3925   -1.4480    1.2091 H       1  UNL1        0.0624
     54 H           0.5734   -3.5513   -1.2816 H       1  UNL1        0.0514
     55 H           0.5088   -2.5978   -2.7186 H       1  UNL1        0.0514
     56 H           2.5600   -2.4562   -1.6610 H       1  UNL1        0.0578
     57 H           1.8084   -0.8431   -1.7468 H       1  UNL1        0.0578
@<TRIPOS>BOND
     1     1     2    1
     2     2     3    1
     3     3     4    1
     4     4     5    1
     5     5     6    1
     6     6     7   ar
     7     7     8   ar
     8     8     9   ar
     9     9    10   ar
    10    10    11   ar
    11    11    12   ar
    12    12    13   ar
    13    13    14   ar
    14     8    15    1
    15    15    16    2
    16    16    17    1
    17    17    18    2
    18    17    19   am
    19    19    20   am
    20    20    21    2
    21    16    22    1
    22    22    23   ar
    23    23    24   ar
    24    24    25   ar
    25    25    26   ar
    26    26    27   ar
    27    27    28   ar
    28    28    29   ar
    29    29    30   ar
    30    24    31    1
    31    31    32    1
    32    32    33    1
    33    33     3    1
    34    14     6   ar
    35    20    15    1
    36    30    22   ar
    37    14     9   ar
    38    30    25   ar
    39     1    34    1
    40     1    35    1
    41     2    36    1
    42     2    37    1
    43     3    38    1
    44     4    39    1
    45     4    40    1
    46     5    41    1
    47     5    42    1
    48     7    43    1
    49    10    44    1
    50    11    45    1
    51    12    46    1
    52    13    47    1
    53    19    48    1
    54    23    49    1
    55    26    50    1
    56    27    51    1
    57    28    52    1
    58    29    53    1
    59    31    54    1
    60    31    55    1
    61    32    56    1
    62    32    57    1
