
     RDKit          3D

 57 62  0  0  0  0  0  0  0  0999 V2000
    4.0381   -3.3216    0.2847 N   0  0  0  0  0  0  0  0  0  0  0  0
    3.8705   -2.2240    1.1799 C   0  0  0  0  0  0  0  0  0  0  0  0
    3.0487   -1.0910    0.4601 C   0  0  2  0  0  0  0  0  0  0  0  0
    3.0259    0.0621    1.3552 C   0  0  0  0  0  0  0  0  0  0  0  0
    2.5115    1.3274    0.9579 C   0  0  0  0  0  0  0  0  0  0  0  0
    1.1708    1.7167    0.6209 N   0  0  0  0  0  0  0  0  0  0  0  0
   -0.0434    1.1825    0.8634 C   0  0  0  0  0  0  0  0  0  0  0  0
   -1.0082    1.9960    0.3246 C   0  0  0  0  0  0  0  0  0  0  0  0
   -0.3174    3.0769   -0.2697 C   0  0  0  0  0  0  0  0  0  0  0  0
   -0.7143    4.2329   -0.9718 C   0  0  0  0  0  0  0  0  0  0  0  0
    0.1694    5.1618   -1.4616 C   0  0  0  0  0  0  0  0  0  0  0  0
    1.4911    4.9777   -1.2724 C   0  0  0  0  0  0  0  0  0  0  0  0
    1.8904    3.8521   -0.5889 C   0  0  0  0  0  0  0  0  0  0  0  0
    0.9941    2.8967   -0.0844 C   0  0  0  0  0  0  0  0  0  0  0  0
   -2.4866    1.9296    0.2371 C   0  0  0  0  0  0  0  0  0  0  0  0
   -3.1237    0.7764   -0.1983 C   0  0  0  0  0  0  0  0  0  0  0  0
   -4.5585    1.0170   -0.1812 C   0  0  0  0  0  0  0  0  0  0  0  0
   -5.4905    0.2013   -0.5148 O   0  0  0  0  0  0  0  0  0  0  0  0
   -4.7835    2.3088    0.2632 N   0  0  0  0  0  0  0  0  0  0  0  0
   -3.5476    2.8863    0.5240 C   0  0  0  0  0  0  0  0  0  0  0  0
   -3.4359    4.0804    0.9503 O   0  0  0  0  0  0  0  0  0  0  0  0
   -2.3106   -0.4197   -0.5353 C   0  0  0  0  0  0  0  0  0  0  0  0
   -1.1616   -0.5536   -1.2840 C   0  0  0  0  0  0  0  0  0  0  0  0
   -0.7409   -1.8261   -1.1745 N   0  0  0  0  0  0  0  0  0  0  0  0
   -1.6234   -2.5270   -0.3635 C   0  0  0  0  0  0  0  0  0  0  0  0
   -1.6797   -3.8551    0.0718 C   0  0  0  0  0  0  0  0  0  0  0  0
   -2.6899   -4.3043    0.8901 C   0  0  0  0  0  0  0  0  0  0  0  0
   -3.6737   -3.4606    1.3043 C   0  0  0  0  0  0  0  0  0  0  0  0
   -3.6126   -2.1608    0.8740 C   0  0  0  0  0  0  0  0  0  0  0  0
   -2.5925   -1.6846    0.0395 C   0  0  0  0  0  0  0  0  0  0  0  0
    0.4619   -2.4883   -1.6374 C   0  0  0  0  0  0  0  0  0  0  0  0
    1.7575   -1.8319   -1.2549 C   0  0  0  0  0  0  0  0  0  0  0  0
    1.8455   -1.6055    0.1141 O   0  0  0  0  0  0  0  0  0  0  0  0
    4.7612   -3.1085   -0.4104 H   0  0  0  0  0  0  0  0  0  0  0  0
    4.0952   -4.2459    0.7348 H   0  0  0  0  0  0  0  0  0  0  0  0
    3.4043   -2.4588    2.1528 H   0  0  0  0  0  0  0  0  0  0  0  0
    4.8641   -1.7895    1.3978 H   0  0  0  0  0  0  0  0  0  0  0  0
    3.6614   -0.9118   -0.4361 H   0  0  0  0  0  0  0  0  0  0  0  0
    2.6106   -0.1831    2.3851 H   0  0  0  0  0  0  0  0  0  0  0  0
    4.1357    0.2359    1.6447 H   0  0  0  0  0  0  0  0  0  0  0  0
    2.9892    2.1674    1.6170 H   0  0  0  0  0  0  0  0  0  0  0  0
    3.1897    1.5483    0.0262 H   0  0  0  0  0  0  0  0  0  0  0  0
   -0.1776    0.2015    1.4539 H   0  0  0  0  0  0  0  0  0  0  0  0
   -1.7707    4.3698   -1.1297 H   0  0  0  0  0  0  0  0  0  0  0  0
   -0.2114    6.0254   -1.9909 H   0  0  0  0  0  0  0  0  0  0  0  0
    2.2124    5.6910   -1.6456 H   0  0  0  0  0  0  0  0  0  0  0  0
    2.9566    3.7188   -0.4458 H   0  0  0  0  0  0  0  0  0  0  0  0
   -5.7400    2.7247    0.3667 H   0  0  0  0  0  0  0  0  0  0  0  0
   -0.6416    0.2386   -1.9410 H   0  0  0  0  0  0  0  0  0  0  0  0
   -0.9115   -4.5284   -0.2486 H   0  0  0  0  0  0  0  0  0  0  0  0
   -2.6886   -5.3495    1.2015 H   0  0  0  0  0  0  0  0  0  0  0  0
   -4.4782   -3.7779    1.9443 H   0  0  0  0  0  0  0  0  0  0  0  0
   -4.3925   -1.4480    1.2091 H   0  0  0  0  0  0  0  0  0  0  0  0
    0.5734   -3.5513   -1.2816 H   0  0  0  0  0  0  0  0  0  0  0  0
    0.5088   -2.5978   -2.7186 H   0  0  0  0  0  0  0  0  0  0  0  0
    2.5600   -2.4562   -1.6610 H   0  0  0  0  0  0  0  0  0  0  0  0
    1.8084   -0.8431   -1.7468 H   0  0  0  0  0  0  0  0  0  0  0  0
  1  2  1  0
  2  3  1  0
  3  4  1  0
  4  5  1  0
  5  6  1  0
  6  7  1  0
  7  8  2  0
  8  9  1  0
  9 10  2  0
 10 11  1  0
 11 12  2  0
 12 13  1  0
 13 14  2  0
  8 15  1  0
 15 16  2  0
 16 17  1  0
 17 18  2  0
 17 19  1  0
 19 20  1  0
 20 21  2  0
 16 22  1  0
 22 23  2  0
 23 24  1  0
 24 25  1  0
 25 26  2  0
 26 27  1  0
 27 28  2  0
 28 29  1  0
 29 30  2  0
 24 31  1  0
 31 32  1  0
 32 33  1  0
 33  3  1  0
 14  6  1  0
 20 15  1  0
 30 22  1  0
 14  9  1  0
 30 25  1  0
  1 34  1  0
  1 35  1  0
  2 36  1  0
  2 37  1  0
  3 38  1  6
  4 39  1  0
  4 40  1  0
  5 41  1  0
  5 42  1  0
  7 43  1  0
 10 44  1  0
 11 45  1  0
 12 46  1  0
 13 47  1  0
 19 48  1  0
 23 49  1  0
 26 50  1  0
 27 51  1  0
 28 52  1  0
 29 53  1  0
 31 54  1  0
 31 55  1  0
 32 56  1  0
 32 57  1  0
M  END
$$$$
