
     RDKit          3D

 45 48  0  0  0  0  0  0  0  0999 V2000
    6.8976   -2.1790    1.0231 N   0  0  0  0  0  0  0  0  0  0  0  0
    5.9206   -2.4358   -0.3515 S   0  0  0  0  0  6  0  0  0  0  0  0
    5.5440   -3.8817   -0.5339 O   0  0  0  0  0  0  0  0  0  0  0  0
    6.6864   -1.9927   -1.5759 O   0  0  0  0  0  0  0  0  0  0  0  0
    4.4867   -1.4543   -0.2016 C   0  0  0  0  0  0  0  0  0  0  0  0
    3.3333   -1.9133    0.4117 C   0  0  0  0  0  0  0  0  0  0  0  0
    2.1920   -1.1578    0.5412 C   0  0  0  0  0  0  0  0  0  0  0  0
    2.1829    0.1178    0.0404 C   0  0  0  0  0  0  0  0  0  0  0  0
    1.0574    0.9681    0.0998 N   0  0  0  0  0  0  0  0  0  0  0  0
   -0.2868    0.6187   -0.0427 C   0  0  0  0  0  0  0  0  0  0  0  0
   -0.8273   -0.5944   -0.3270 C   0  0  0  0  0  0  0  0  0  0  0  0
   -2.1819   -0.4929   -0.3672 N   0  0  0  0  0  0  0  0  0  0  0  0
   -3.1284   -1.4941   -0.6246 C   0  0  0  0  0  0  0  0  0  0  0  0
   -4.2227   -1.9241   -0.0816 N   0  0  0  0  0  0  0  0  0  0  0  0
   -4.9417   -2.8810   -0.5038 C   0  0  0  0  0  0  0  0  0  0  0  0
   -6.2012   -3.3249    0.1799 C   0  0  0  0  0  0  0  0  0  0  0  0
   -6.6140   -2.7606    1.2208 O   0  0  0  0  0  0  0  0  0  0  0  0
   -6.9519   -4.3717   -0.3128 O   0  0  0  0  0  0  0  0  0  0  0  0
   -4.5506   -3.5644   -1.6648 C   0  0  0  0  0  0  0  0  0  0  0  0
   -3.0082   -2.6231   -2.0427 S   0  0  0  0  0  0  0  0  0  0  0  0
   -2.4835    0.7464   -0.1161 N   0  0  0  0  0  0  0  0  0  0  0  0
   -1.3555    1.4780    0.0922 C   0  0  0  0  0  0  0  0  0  0  0  0
   -1.3327    2.8978    0.3909 C   0  0  0  0  0  0  0  0  0  0  0  0
   -0.6069    3.4868    1.3853 C   0  0  0  0  0  0  0  0  0  0  0  0
   -0.6120    4.8523    1.6252 C   0  0  0  0  0  0  0  0  0  0  0  0
   -1.3809    5.6636    0.8310 C   0  0  0  0  0  0  0  0  0  0  0  0
   -2.1312    5.1126   -0.1861 C   0  0  0  0  0  0  0  0  0  0  0  0
   -2.1068    3.7495   -0.4022 C   0  0  0  0  0  0  0  0  0  0  0  0
    3.3324    0.6056   -0.5825 C   0  0  0  0  0  0  0  0  0  0  0  0
    4.4599   -0.1737   -0.6970 C   0  0  0  0  0  0  0  0  0  0  0  0
    6.3702   -2.1703    1.9215 H   0  0  0  0  0  0  0  0  0  0  0  0
    7.6040   -1.4437    0.9309 H   0  0  0  0  0  0  0  0  0  0  0  0
    3.3470   -2.9224    0.8049 H   0  0  0  0  0  0  0  0  0  0  0  0
    1.3554   -1.6097    1.0496 H   0  0  0  0  0  0  0  0  0  0  0  0
    1.3139    1.9952    0.2740 H   0  0  0  0  0  0  0  0  0  0  0  0
   -0.3422   -1.5321   -0.5146 H   0  0  0  0  0  0  0  0  0  0  0  0
   -7.6271   -4.8677    0.2918 H   0  0  0  0  0  0  0  0  0  0  0  0
   -4.9394   -4.3691   -2.2249 H   0  0  0  0  0  0  0  0  0  0  0  0
   -0.0018    2.8715    2.0263 H   0  0  0  0  0  0  0  0  0  0  0  0
   -0.0421    5.3084    2.4045 H   0  0  0  0  0  0  0  0  0  0  0  0
   -1.4471    6.7427    0.9446 H   0  0  0  0  0  0  0  0  0  0  0  0
   -2.7502    5.7332   -0.8312 H   0  0  0  0  0  0  0  0  0  0  0  0
   -2.7067    3.3522   -1.2076 H   0  0  0  0  0  0  0  0  0  0  0  0
    3.3549    1.6200   -0.9913 H   0  0  0  0  0  0  0  0  0  0  0  0
    5.3421    0.2144   -1.1805 H   0  0  0  0  0  0  0  0  0  0  0  0
  1  2  1  0
  2  3  2  0
  2  4  2  0
  2  5  1  0
  5  6  2  0
  6  7  1  0
  7  8  2  0
  8  9  1  0
  9 10  1  0
 10 11  2  0
 11 12  1  0
 12 13  1  0
 13 14  2  0
 14 15  1  0
 15 16  1  0
 16 17  2  0
 16 18  1  0
 15 19  2  0
 19 20  1  0
 12 21  1  0
 21 22  2  0
 22 23  1  0
 23 24  2  0
 24 25  1  0
 25 26  2  0
 26 27  1  0
 27 28  2  0
  8 29  1  0
 29 30  2  0
 30  5  1  0
 22 10  1  0
 28 23  1  0
 20 13  1  0
  1 31  1  0
  1 32  1  0
  6 33  1  0
  7 34  1  0
  9 35  1  0
 11 36  1  0
 18 37  1  0
 19 38  1  0
 24 39  1  0
 25 40  1  0
 26 41  1  0
 27 42  1  0
 28 43  1  0
 29 44  1  0
 30 45  1  0
M  END
$$$$
