@<TRIPOS>MOLECULE
*****
 45 48 0 0 0
SMALL
GASTEIGER

@<TRIPOS>ATOM
      1 N1          6.8976   -2.1790    1.0231 N.3     1  <1>        -0.2035
      2 S1          5.9206   -2.4358   -0.3515 S.O2    1  <1>         0.0559
      3 O1          5.5440   -3.8817   -0.5339 O.2     1  <1>        -0.1533
      4 O2          6.6864   -1.9927   -1.5759 O.2     1  <1>        -0.1533
      5 C1          4.4867   -1.4543   -0.2016 C.ar    1  <1>         0.1051
      6 C2          3.3333   -1.9133    0.4117 C.ar    1  <1>        -0.0336
      7 C3          2.1920   -1.1578    0.5412 C.ar    1  <1>        -0.0387
      8 C4          2.1829    0.1178    0.0404 C.ar    1  <1>         0.0315
      9 N2          1.0574    0.9681    0.0998 N.pl3   1  <1>        -0.3116
     10 C5         -0.2868    0.6187   -0.0427 C.ar    1  <1>         0.0778
     11 C6         -0.8273   -0.5944   -0.3270 C.ar    1  <1>         0.0552
     12 N3         -2.1819   -0.4929   -0.3672 N.ar    1  <1>        -0.2134
     13 C7         -3.1284   -1.4941   -0.6246 C.ar    1  <1>         0.1945
     14 N4         -4.2227   -1.9241   -0.0816 N.ar    1  <1>        -0.2145
     15 C8         -4.9417   -2.8810   -0.5038 C.ar    1  <1>         0.1568
     16 C9         -6.2012   -3.3249    0.1799 C.2     1  <1>         0.3559
     17 O3         -6.6140   -2.7606    1.2208 O.2     1  <1>        -0.2434
     18 O4         -6.9519   -4.3717   -0.3128 O.3     1  <1>        -0.4761
     19 C10        -4.5506   -3.5644   -1.6648 C.ar    1  <1>         0.0116
     20 S2         -3.0082   -2.6231   -2.0427 S.2     1  <1>        -0.0554
     21 N5         -2.4835    0.7464   -0.1161 N.ar    1  <1>        -0.1627
     22 C11        -1.3555    1.4780    0.0922 C.ar    1  <1>         0.1143
     23 C12        -1.3327    2.8978    0.3909 C.ar    1  <1>         0.0039
     24 C13        -0.6069    3.4868    1.3853 C.ar    1  <1>        -0.0524
     25 C14        -0.6120    4.8523    1.6252 C.ar    1  <1>        -0.0611
     26 C15        -1.3809    5.6636    0.8310 C.ar    1  <1>        -0.0617
     27 C16        -2.1312    5.1126   -0.1861 C.ar    1  <1>        -0.0611
     28 C17        -2.1068    3.7495   -0.4022 C.ar    1  <1>        -0.0524
     29 C18         3.3324    0.6056   -0.5825 C.ar    1  <1>        -0.0387
     30 C19         4.4599   -0.1737   -0.6970 C.ar    1  <1>        -0.0336
     31 H1          6.3702   -2.1703    1.9215 H       1  <1>         0.1442
     32 H2          7.6040   -1.4437    0.9309 H       1  <1>         0.1442
     33 H3          3.3470   -2.9224    0.8049 H       1  <1>         0.0638
     34 H4          1.3554   -1.6097    1.0496 H       1  <1>         0.0637
     35 H5          1.3139    1.9952    0.2740 H       1  <1>         0.1523
     36 H6         -0.3422   -1.5321   -0.5146 H       1  <1>         0.0850
     37 H7         -7.6271   -4.8677    0.2918 H       1  <1>         0.2955
     38 H8         -4.9394   -4.3691   -2.2249 H       1  <1>         0.0718
     39 H9         -0.0018    2.8715    2.0263 H       1  <1>         0.0624
     40 H10        -0.0421    5.3084    2.4045 H       1  <1>         0.0618
     41 H11        -1.4471    6.7427    0.9446 H       1  <1>         0.0618
     42 H12        -2.7502    5.7332   -0.8312 H       1  <1>         0.0618
     43 H13        -2.7067    3.3522   -1.2076 H       1  <1>         0.0624
     44 H14         3.3549    1.6200   -0.9913 H       1  <1>         0.0637
     45 H15         5.3421    0.2144   -1.1805 H       1  <1>         0.0638
@<TRIPOS>BOND
     1     1     2    1
     2     2     3    2
     3     2     4    2
     4     2     5    1
     5     5     6   ar
     6     6     7   ar
     7     7     8   ar
     8     8     9    1
     9     9    10    1
    10    10    11   ar
    11    11    12   ar
    12    12    13    1
    13    13    14   ar
    14    14    15   ar
    15    15    16    1
    16    16    17    2
    17    16    18    1
    18    15    19   ar
    19    19    20   ar
    20    12    21   ar
    21    21    22   ar
    22    22    23    1
    23    23    24   ar
    24    24    25   ar
    25    25    26   ar
    26    26    27   ar
    27    27    28   ar
    28     8    29   ar
    29    29    30   ar
    30    30     5   ar
    31    22    10   ar
    32    28    23   ar
    33    20    13   ar
    34     1    31    1
    35     1    32    1
    36     6    33    1
    37     7    34    1
    38     9    35    1
    39    11    36    1
    40    18    37    1
    41    19    38    1
    42    24    39    1
    43    25    40    1
    44    26    41    1
    45    27    42    1
    46    28    43    1
    47    29    44    1
    48    30    45    1
