@<TRIPOS>MOLECULE
*****
 50 50 0 0 0
SMALL
GASTEIGER

@<TRIPOS>ATOM
      1 C           1.2441   -1.0347   -1.5691 C.3     1  UNL1       -0.0397
      2 C           0.7691   -0.2866   -0.3907 C.2     1  UNL1       -0.0504
      3 C          -0.6290    0.0419   -0.0485 C.2     1  UNL1       -0.0586
      4 C          -1.6833   -0.2802   -0.7413 C.2     1  UNL1       -0.0579
      5 C          -3.0826    0.0219   -0.4434 C.2     1  UNL1       -0.0427
      6 C          -3.9612   -0.4465   -1.3544 C.2     1  UNL1       -0.0689
      7 C          -3.4726   -1.1947   -2.5311 C.3     1  UNL1       -0.0432
      8 C          -5.4272   -0.2403   -1.2272 C.3     1  UNL1       -0.0314
      9 C          -5.7298   -0.1029    0.2281 C.3     1  UNL1       -0.0486
     10 C          -4.9403    0.9740    0.9034 C.3     1  UNL1       -0.0436
     11 C          -3.4463    0.7850    0.7768 C.3     1  UNL1       -0.0099
     12 C          -2.8306    2.1517    0.6814 C.3     1  UNL1       -0.0558
     13 C          -2.8978    0.0954    2.0087 C.3     1  UNL1       -0.0558
     14 C           1.7587    0.0998    0.3998 C.2     1  UNL1       -0.0588
     15 C           3.1558   -0.1920    0.1186 C.2     1  UNL1       -0.0613
     16 C           4.1156    0.2087    0.9286 C.2     1  UNL1       -0.0586
     17 C           5.5340   -0.0359    0.7293 C.2     1  UNL1       -0.0437
     18 C           6.1314   -0.7657   -0.4001 C.3     1  UNL1       -0.0395
     19 C           6.4023    0.4216    1.6205 C.2     1  UNL1        0.0252
     20 C           7.8361    0.2275    1.5077 C.2     1  UNL1        0.3298
     21 O           8.5680   -0.4227    0.5305 O.3     1  UNL1       -0.4775
     22 O           8.6285    0.6748    2.3710 O.2     1  UNL1       -0.2458
     23 H           1.9883   -0.4300   -2.1492 H       1  UNL1        0.0278
     24 H           0.4718   -1.3855   -2.2531 H       1  UNL1        0.0278
     25 H           1.8232   -1.9116   -1.1574 H       1  UNL1        0.0278
     26 H          -0.7769    0.5944    0.8514 H       1  UNL1        0.0620
     27 H          -1.3725   -0.8411   -1.6317 H       1  UNL1        0.0621
     28 H          -4.3096   -1.5195   -3.1472 H       1  UNL1        0.0275
     29 H          -2.8269   -0.4726   -3.1038 H       1  UNL1        0.0275
     30 H          -2.8841   -2.0888   -2.1950 H       1  UNL1        0.0275
     31 H          -5.7619    0.6211   -1.8345 H       1  UNL1        0.0310
     32 H          -5.9362   -1.1556   -1.5955 H       1  UNL1        0.0310
     33 H          -5.6044   -1.0779    0.7170 H       1  UNL1        0.0269
     34 H          -6.8044    0.1990    0.3250 H       1  UNL1        0.0269
     35 H          -5.2837    1.9778    0.5889 H       1  UNL1        0.0274
     36 H          -5.1788    0.9105    1.9928 H       1  UNL1        0.0274
     37 H          -2.2311    2.3264    1.6015 H       1  UNL1        0.0238
     38 H          -2.1785    2.1782   -0.2153 H       1  UNL1        0.0238
     39 H          -3.6362    2.9167    0.5783 H       1  UNL1        0.0238
     40 H          -2.4153   -0.8658    1.7533 H       1  UNL1        0.0238
     41 H          -3.7888   -0.2067    2.6381 H       1  UNL1        0.0238
     42 H          -2.3031    0.7326    2.6641 H       1  UNL1        0.0238
     43 H           1.5140    0.6654    1.3073 H       1  UNL1        0.0620
     44 H           3.4382   -0.7427   -0.7590 H       1  UNL1        0.0618
     45 H           3.7866    0.7556    1.7928 H       1  UNL1        0.0620
     46 H           6.8148   -0.0829   -0.9691 H       1  UNL1        0.0278
     47 H           6.6748   -1.6695   -0.0142 H       1  UNL1        0.0278
     48 H           5.3834   -1.1609   -1.1142 H       1  UNL1        0.0278
     49 H           6.0378    0.9613    2.4674 H       1  UNL1        0.0691
     50 H           9.3166    0.0719    0.0829 H       1  UNL1        0.2954
@<TRIPOS>BOND
     1     1     2    1
     2     2     3    1
     3     3     4    2
     4     4     5    1
     5     5     6    2
     6     6     7    1
     7     6     8    1
     8     8     9    1
     9     9    10    1
    10    10    11    1
    11    11    12    1
    12    11    13    1
    13     2    14    2
    14    14    15    1
    15    15    16    2
    16    16    17    1
    17    17    18    1
    18    17    19    2
    19    19    20    1
    20    20    21    1
    21    20    22    2
    22    11     5    1
    23     1    23    1
    24     1    24    1
    25     1    25    1
    26     3    26    1
    27     4    27    1
    28     7    28    1
    29     7    29    1
    30     7    30    1
    31     8    31    1
    32     8    32    1
    33     9    33    1
    34     9    34    1
    35    10    35    1
    36    10    36    1
    37    12    37    1
    38    12    38    1
    39    12    39    1
    40    13    40    1
    41    13    41    1
    42    13    42    1
    43    14    43    1
    44    15    44    1
    45    16    45    1
    46    18    46    1
    47    18    47    1
    48    18    48    1
    49    19    49    1
    50    21    50    1
