@<TRIPOS>MOLECULE
*****
 43 45 0 0 0
SMALL
GASTEIGER

@<TRIPOS>ATOM
      1 C          -1.8403    0.1001   -2.0134 C.3     1  UNL1       -0.0112
      2 C          -2.4431    0.3583   -0.6278 C.3     1  UNL1        0.1958
      3 C          -1.3082    0.3280    0.3514 C.ar    1  UNL1        0.0420
      4 C          -0.0073    0.1322   -0.0682 C.ar    1  UNL1       -0.0301
      5 C           1.0668    0.1058    0.8315 C.ar    1  UNL1        0.0343
      6 N           2.3518   -0.1004    0.2989 N.am    1  UNL1       -0.2802
      7 C           3.5669   -0.1621    1.0227 C.2     1  UNL1        0.2666
      8 O           3.5557   -0.0261    2.2645 O.2     1  UNL1       -0.2682
      9 C           4.8611   -0.3862    0.3352 C.ar    1  UNL1        0.1257
     10 C           6.0043   -0.4353    1.0991 C.ar    1  UNL1       -0.0298
     11 C           7.2464   -0.6397    0.5365 C.ar    1  UNL1       -0.0397
     12 C           7.3445   -0.7982   -0.8196 C.ar    1  UNL1        0.0591
     13 CL          8.9144   -1.0583   -1.5458 Cl      1  UNL1       -0.0820
     14 C           6.1769   -0.7435   -1.5576 C.ar    1  UNL1        0.0467
     15 N           4.9624   -0.5408   -0.9814 N.ar    1  UNL1       -0.2489
     16 C           0.7332    0.2867    2.1444 C.ar    1  UNL1       -0.0377
     17 C          -0.5767    0.4861    2.5888 C.ar    1  UNL1       -0.0243
     18 C          -1.6105    0.5070    1.6818 C.ar    1  UNL1        0.1311
     19 F          -2.9015    0.6881    2.0304 F       1  UNL1       -0.2050
     20 C          -3.1010    1.6789   -0.6500 C.3     1  UNL1        0.1177
     21 S          -4.8552    1.5683   -0.7596 S.O2    1  UNL1       -0.0152
     22 O          -5.4595    1.7414    0.6131 O.2     1  UNL1       -0.1736
     23 O          -5.4518    2.6426   -1.6140 O.2     1  UNL1       -0.1736
     24 C          -5.2194   -0.0530   -1.4024 C.3     1  UNL1        0.1676
     25 C          -4.4909   -0.9909   -0.4679 C.2     1  UNL1        0.3010
     26 N          -5.1745   -2.1232    0.0611 N.pl3   1  UNL1       -0.2493
     27 N          -3.2993   -0.6969   -0.2170 N.2     1  UNL1       -0.0733
     28 H          -1.1151    0.8966   -2.2753 H       1  UNL1        0.0279
     29 H          -1.3320   -0.8659   -2.0395 H       1  UNL1        0.0279
     30 H          -2.6196    0.1803   -2.8149 H       1  UNL1        0.0279
     31 H           0.2434   -0.0113   -1.1149 H       1  UNL1        0.0641
     32 H           2.5009   -0.2318   -0.7538 H       1  UNL1        0.1552
     33 H           5.9731   -0.3152    2.1722 H       1  UNL1        0.0641
     34 H           8.1203   -0.6718    1.1705 H       1  UNL1        0.0633
     35 H           6.2264   -0.8653   -2.6269 H       1  UNL1        0.0844
     36 H           1.4991    0.2801    2.8980 H       1  UNL1        0.0637
     37 H          -0.8017    0.6254    3.6333 H       1  UNL1        0.0647
     38 H          -2.8855    2.1951    0.3335 H       1  UNL1        0.0550
     39 H          -2.7725    2.3319   -1.4956 H       1  UNL1        0.0550
     40 H          -6.3024   -0.2066   -1.2157 H       1  UNL1        0.0626
     41 H          -4.9312   -0.1637   -2.4416 H       1  UNL1        0.0626
     42 H          -4.7651   -3.0622   -0.0169 H       1  UNL1        0.2881
     43 H          -6.0830   -1.9843    0.5214 H       1  UNL1        0.2881
@<TRIPOS>BOND
     1     2     1    1
     2     2     3    1
     3     3     4   ar
     4     4     5   ar
     5     5     6    1
     6     6     7   am
     7     7     8    2
     8     7     9    1
     9     9    10   ar
    10    10    11   ar
    11    11    12   ar
    12    12    13    1
    13    12    14   ar
    14    14    15   ar
    15     5    16   ar
    16    16    17   ar
    17    17    18   ar
    18    18    19    1
    19     2    20    1
    20    20    21    1
    21    21    22    2
    22    21    23    2
    23    21    24    1
    24    24    25    1
    25    25    26    1
    26    25    27    2
    27    27     2    1
    28    18     3   ar
    29    15     9   ar
    30     1    28    1
    31     1    29    1
    32     1    30    1
    33     4    31    1
    34     6    32    1
    35    10    33    1
    36    11    34    1
    37    14    35    1
    38    16    36    1
    39    17    37    1
    40    20    38    1
    41    20    39    1
    42    24    40    1
    43    24    41    1
    44    26    42    1
    45    26    43    1
