
     RDKit          3D

 51 54  0  0  0  0  0  0  0  0999 V2000
    5.0702    0.7306   -1.3571 C   0  0  0  0  0  0  0  0  0  0  0  0
    4.3146    1.2673   -0.1870 C   0  0  0  0  0  0  0  0  0  0  0  0
    5.2229    1.8689    0.8631 C   0  0  0  0  0  0  0  0  0  0  0  0
    3.4522    2.2970   -0.6194 O   0  0  0  0  0  0  0  0  0  0  0  0
    3.4351    0.1680    0.3864 C   0  0  0  0  0  0  0  0  0  0  0  0
    2.5050   -0.2608   -0.7120 C   0  0  0  0  0  0  0  0  0  0  0  0
    1.5945   -1.2972   -0.2998 N   0  0  0  0  0  0  0  0  0  0  0  0
    1.8640   -2.6183   -0.2810 C   0  0  0  0  0  0  0  0  0  0  0  0
    0.8164   -3.3031    0.1802 N   0  0  0  0  0  0  0  0  0  0  0  0
   -0.1455   -2.4378    0.4657 C   0  0  0  0  0  0  0  0  0  0  0  0
   -1.4870   -2.6597    0.9847 C   0  0  0  0  0  0  0  0  0  0  0  0
   -2.3922   -3.4875    0.3672 C   0  0  0  0  0  0  0  0  0  0  0  0
   -3.6693   -3.6949    0.8556 C   0  0  0  0  0  0  0  0  0  0  0  0
   -4.0626   -3.0555    2.0019 C   0  0  0  0  0  0  0  0  0  0  0  0
   -5.3208   -3.2607    2.4816 F   0  0  0  0  0  0  0  0  0  0  0  0
   -3.1690   -2.2227    2.6333 C   0  0  0  0  0  0  0  0  0  0  0  0
   -1.8903   -2.0199    2.1367 C   0  0  0  0  0  0  0  0  0  0  0  0
    0.3552   -1.1595    0.1575 C   0  0  0  0  0  0  0  0  0  0  0  0
   -0.4133    0.0702    0.3042 C   0  0  0  0  0  0  0  0  0  0  0  0
   -0.1192    1.0559    1.2094 C   0  0  0  0  0  0  0  0  0  0  0  0
   -0.8917    2.2199    1.2991 C   0  0  0  0  0  0  0  0  0  0  0  0
   -1.9777    2.3679    0.4477 C   0  0  0  0  0  0  0  0  0  0  0  0
   -2.8846    3.3597    0.3092 N   0  0  0  0  0  0  0  0  0  0  0  0
   -3.7412    3.0187   -0.6610 C   0  0  0  0  0  0  0  0  0  0  0  0
   -3.3355    1.7849   -1.1185 C   0  0  0  0  0  0  0  0  0  0  0  0
   -4.0005    1.0499   -2.1795 C   0  0  0  0  0  0  0  0  0  0  0  0
   -5.1296    1.6125   -2.8107 N   0  0  0  0  0  0  0  0  0  0  0  0
   -3.5617   -0.0684   -2.5147 O   0  0  0  0  0  0  0  0  0  0  0  0
   -2.2310    1.3777   -0.4243 N   0  0  0  0  0  0  0  0  0  0  0  0
   -1.4869    0.2824   -0.4943 N   0  0  0  0  0  0  0  0  0  0  0  0
    6.0777    1.1722   -1.4751 H   0  0  0  0  0  0  0  0  0  0  0  0
    4.4372    0.9268   -2.2640 H   0  0  0  0  0  0  0  0  0  0  0  0
    5.1876   -0.3681   -1.3311 H   0  0  0  0  0  0  0  0  0  0  0  0
    4.8733    2.8772    1.1637 H   0  0  0  0  0  0  0  0  0  0  0  0
    6.2205    1.9854    0.3830 H   0  0  0  0  0  0  0  0  0  0  0  0
    5.2740    1.2509    1.7792 H   0  0  0  0  0  0  0  0  0  0  0  0
    3.1324    2.7410    0.2074 H   0  0  0  0  0  0  0  0  0  0  0  0
    4.1384   -0.6804    0.5874 H   0  0  0  0  0  0  0  0  0  0  0  0
    2.8951    0.4552    1.2863 H   0  0  0  0  0  0  0  0  0  0  0  0
    3.1435   -0.6174   -1.5664 H   0  0  0  0  0  0  0  0  0  0  0  0
    1.9602    0.6173   -1.1533 H   0  0  0  0  0  0  0  0  0  0  0  0
    2.7924   -3.0723   -0.5925 H   0  0  0  0  0  0  0  0  0  0  0  0
   -2.1257   -4.0138   -0.5385 H   0  0  0  0  0  0  0  0  0  0  0  0
   -4.3407   -4.3620    0.3227 H   0  0  0  0  0  0  0  0  0  0  0  0
   -3.5140   -1.7319    3.5403 H   0  0  0  0  0  0  0  0  0  0  0  0
   -1.1898   -1.3728    2.6213 H   0  0  0  0  0  0  0  0  0  0  0  0
    0.7056    0.9889    1.8983 H   0  0  0  0  0  0  0  0  0  0  0  0
   -0.6634    2.9973    2.0083 H   0  0  0  0  0  0  0  0  0  0  0  0
   -4.6010    3.5976   -1.0298 H   0  0  0  0  0  0  0  0  0  0  0  0
   -5.4344    2.6065   -2.6619 H   0  0  0  0  0  0  0  0  0  0  0  0
   -5.6895    1.0173   -3.4557 H   0  0  0  0  0  0  0  0  0  0  0  0
  1  2  1  0
  2  3  1  0
  2  4  1  0
  2  5  1  0
  5  6  1  0
  6  7  1  0
  7  8  1  0
  8  9  2  0
  9 10  1  0
 10 11  1  0
 11 12  2  0
 12 13  1  0
 13 14  2  0
 14 15  1  0
 14 16  1  0
 16 17  2  0
 10 18  2  0
 18 19  1  0
 19 20  1  0
 20 21  2  0
 21 22  1  0
 22 23  2  0
 23 24  1  0
 24 25  2  0
 25 26  1  0
 26 27  1  0
 26 28  2  0
 25 29  1  0
 29 30  1  0
 18  7  1  0
 30 19  2  0
 17 11  1  0
 29 22  1  0
  1 31  1  0
  1 32  1  0
  1 33  1  0
  3 34  1  0
  3 35  1  0
  3 36  1  0
  4 37  1  0
  5 38  1  0
  5 39  1  0
  6 40  1  0
  6 41  1  0
  8 42  1  0
 12 43  1  0
 13 44  1  0
 16 45  1  0
 17 46  1  0
 20 47  1  0
 21 48  1  0
 24 49  1  0
 27 50  1  0
 27 51  1  0
M  END
$$$$
