@<TRIPOS>MOLECULE
*****
 51 54 0 0 0
SMALL
GASTEIGER

@<TRIPOS>ATOM
      1 C           5.0702    0.7306   -1.3571 C.3     1  UNL1       -0.0363
      2 C           4.3146    1.2673   -0.1870 C.3     1  UNL1        0.0622
      3 C           5.2229    1.8689    0.8631 C.3     1  UNL1       -0.0363
      4 O           3.4522    2.2970   -0.6194 O.3     1  UNL1       -0.3891
      5 C           3.4351    0.1680    0.3864 C.3     1  UNL1       -0.0064
      6 C           2.5050   -0.2608   -0.7120 C.3     1  UNL1        0.0273
      7 N           1.5945   -1.2972   -0.2998 N.ar    1  UNL1       -0.3283
      8 C           1.8640   -2.6183   -0.2810 C.ar    1  UNL1        0.0971
      9 N           0.8164   -3.3031    0.1802 N.ar    1  UNL1       -0.2351
     10 C          -0.1455   -2.4378    0.4657 C.ar    1  UNL1        0.0982
     11 C          -1.4870   -2.6597    0.9847 C.ar    1  UNL1        0.0027
     12 C          -2.3922   -3.4875    0.3672 C.ar    1  UNL1       -0.0498
     13 C          -3.6693   -3.6949    0.8556 C.ar    1  UNL1       -0.0258
     14 C          -4.0626   -3.0555    2.0019 C.ar    1  UNL1        0.1234
     15 F          -5.3208   -3.2607    2.4816 F       1  UNL1       -0.2055
     16 C          -3.1690   -2.2227    2.6333 C.ar    1  UNL1       -0.0258
     17 C          -1.8903   -2.0199    2.1367 C.ar    1  UNL1       -0.0498
     18 C           0.3552   -1.1595    0.1575 C.ar    1  UNL1        0.0966
     19 C          -0.4133    0.0702    0.3042 C.ar    1  UNL1        0.1103
     20 C          -0.1192    1.0559    1.2094 C.ar    1  UNL1       -0.0290
     21 C          -0.8917    2.2199    1.2991 C.ar    1  UNL1       -0.0153
     22 C          -1.9777    2.3679    0.4477 C.ar    1  UNL1        0.1549
     23 N          -2.8846    3.3597    0.3092 N.ar    1  UNL1       -0.2339
     24 C          -3.7412    3.0187   -0.6610 C.ar    1  UNL1        0.0605
     25 C          -3.3355    1.7849   -1.1185 C.ar    1  UNL1        0.1470
     26 C          -4.0005    1.0499   -2.1795 C.2     1  UNL1        0.2615
     27 N          -5.1296    1.6125   -2.8107 N.am    1  UNL1       -0.3240
     28 O          -3.5617   -0.0684   -2.5147 O.2     1  UNL1       -0.2687
     29 N          -2.2310    1.3777   -0.4243 N.ar    1  UNL1       -0.2076
     30 N          -1.4869    0.2824   -0.4943 N.ar    1  UNL1       -0.1628
     31 H           6.0777    1.1722   -1.4751 H       1  UNL1        0.0257
     32 H           4.4372    0.9268   -2.2640 H       1  UNL1        0.0257
     33 H           5.1876   -0.3681   -1.3311 H       1  UNL1        0.0257
     34 H           4.8733    2.8772    1.1637 H       1  UNL1        0.0257
     35 H           6.2205    1.9854    0.3830 H       1  UNL1        0.0257
     36 H           5.2740    1.2509    1.7792 H       1  UNL1        0.0257
     37 H           3.1324    2.7410    0.2074 H       1  UNL1        0.2101
     38 H           4.1384   -0.6804    0.5874 H       1  UNL1        0.0310
     39 H           2.8951    0.4552    1.2863 H       1  UNL1        0.0310
     40 H           3.1435   -0.6174   -1.5664 H       1  UNL1        0.0493
     41 H           1.9602    0.6173   -1.1533 H       1  UNL1        0.0493
     42 H           2.7924   -3.0723   -0.5925 H       1  UNL1        0.1029
     43 H          -2.1257   -4.0138   -0.5385 H       1  UNL1        0.0625
     44 H          -4.3407   -4.3620    0.3227 H       1  UNL1        0.0646
     45 H          -3.5140   -1.7319    3.5403 H       1  UNL1        0.0646
     46 H          -1.1898   -1.3728    2.6213 H       1  UNL1        0.0625
     47 H           0.7056    0.9889    1.8983 H       1  UNL1        0.0641
     48 H          -0.6634    2.9973    2.0083 H       1  UNL1        0.0655
     49 H          -4.6010    3.5976   -1.0298 H       1  UNL1        0.0854
     50 H          -5.4344    2.6065   -2.6619 H       1  UNL1        0.1453
     51 H          -5.6895    1.0173   -3.4557 H       1  UNL1        0.1453
@<TRIPOS>BOND
     1     1     2    1
     2     2     3    1
     3     2     4    1
     4     2     5    1
     5     5     6    1
     6     6     7    1
     7     7     8   ar
     8     8     9   ar
     9     9    10   ar
    10    10    11    1
    11    11    12   ar
    12    12    13   ar
    13    13    14   ar
    14    14    15    1
    15    14    16   ar
    16    16    17   ar
    17    10    18   ar
    18    18    19    1
    19    19    20   ar
    20    20    21   ar
    21    21    22   ar
    22    22    23   ar
    23    23    24   ar
    24    24    25   ar
    25    25    26    1
    26    26    27   am
    27    26    28    2
    28    25    29   ar
    29    29    30   ar
    30    18     7   ar
    31    30    19   ar
    32    17    11   ar
    33    29    22   ar
    34     1    31    1
    35     1    32    1
    36     1    33    1
    37     3    34    1
    38     3    35    1
    39     3    36    1
    40     4    37    1
    41     5    38    1
    42     5    39    1
    43     6    40    1
    44     6    41    1
    45     8    42    1
    46    12    43    1
    47    13    44    1
    48    16    45    1
    49    17    46    1
    50    20    47    1
    51    21    48    1
    52    24    49    1
    53    27    50    1
    54    27    51    1
