@<TRIPOS>MOLECULE
*****
 52 54 0 0 0
SMALL
GASTEIGER

@<TRIPOS>ATOM
      1 C           4.8763    1.9785    1.1666 C.3     1  UNL1       -0.0653
      2 C           4.7095    0.5009    0.9087 C.3     1  UNL1       -0.0559
      3 C           3.8261   -0.1667    1.9114 C.3     1  UNL1       -0.0533
      4 C           2.4249    0.4023    1.9521 C.3     1  UNL1       -0.0530
      5 C           1.7397    0.2605    0.6175 C.3     1  UNL1       -0.0514
      6 C           1.6174   -1.1634    0.1752 C.3     1  UNL1       -0.0264
      7 C           0.8985   -1.1840   -1.1769 C.3     1  UNL1        0.1482
      8 C          -0.4529   -0.6240   -1.1243 C.ar    1  UNL1       -0.0235
      9 C          -1.0082   -0.1131   -2.2791 C.ar    1  UNL1       -0.0536
     10 C          -2.2991    0.4252   -2.3043 C.ar    1  UNL1       -0.0190
     11 C          -3.0458    0.4498   -1.1447 C.ar    1  UNL1        0.1285
     12 O          -4.3407    0.9894   -1.1676 O.3     1  UNL1       -0.4560
     13 C          -5.0555    0.9938    0.0209 C.ar    1  UNL1        0.1284
     14 C          -5.8717   -0.0400    0.4143 C.ar    1  UNL1       -0.0193
     15 C          -6.5850   -0.0408    1.5957 C.ar    1  UNL1       -0.0583
     16 C          -6.4618    1.0656    2.4178 C.ar    1  UNL1       -0.0615
     17 C          -5.6495    2.1263    2.0556 C.ar    1  UNL1       -0.0583
     18 C          -4.9553    2.0817    0.8639 C.ar    1  UNL1       -0.0193
     19 C          -2.4832   -0.0596   -0.0097 C.ar    1  UNL1       -0.0190
     20 C          -1.2028   -0.5999    0.0408 C.ar    1  UNL1       -0.0536
     21 C           1.7275   -0.2502   -2.0270 C.2     1  UNL1        0.2398
     22 O           1.3511    0.9363   -2.2403 O.2     1  UNL1       -0.2739
     23 N           2.9375   -0.7434   -2.5771 N.am    1  UNL1       -0.2387
     24 C           3.1472   -2.1349   -2.7389 C.2     1  UNL1        0.3122
     25 O           4.2354   -2.5815   -3.2343 O.2     1  UNL1       -0.2520
     26 N           2.1227   -3.0329   -2.3395 N.am    1  UNL1       -0.2387
     27 C           0.9000   -2.5361   -1.7826 C.2     1  UNL1        0.2398
     28 O          -0.1138   -3.2694   -1.8333 O.2     1  UNL1       -0.2739
     29 H           3.9870    2.5406    0.8390 H       1  UNL1        0.0230
     30 H           5.7487    2.3112    0.5445 H       1  UNL1        0.0230
     31 H           5.1601    2.1470    2.2110 H       1  UNL1        0.0230
     32 H           4.3647    0.3559   -0.1128 H       1  UNL1        0.0263
     33 H           5.7311    0.0526    1.0256 H       1  UNL1        0.0263
     34 H           4.2991   -0.1577    2.9197 H       1  UNL1        0.0265
     35 H           3.7422   -1.2428    1.6070 H       1  UNL1        0.0265
     36 H           2.4977    1.4928    2.2221 H       1  UNL1        0.0265
     37 H           1.8454   -0.0532    2.7754 H       1  UNL1        0.0265
     38 H           2.3812    0.7685   -0.1601 H       1  UNL1        0.0266
     39 H           0.7515    0.7340    0.6777 H       1  UNL1        0.0266
     40 H           1.1005   -1.8056    0.9100 H       1  UNL1        0.0283
     41 H           2.6022   -1.6326   -0.0277 H       1  UNL1        0.0283
     42 H          -0.4834   -0.1011   -3.2229 H       1  UNL1        0.0622
     43 H          -2.7325    0.8262   -3.2144 H       1  UNL1        0.0654
     44 H          -5.9668   -0.9148   -0.2395 H       1  UNL1        0.0654
     45 H          -7.2285   -0.8672    1.8954 H       1  UNL1        0.0619
     46 H          -7.0045    1.1019    3.3507 H       1  UNL1        0.0618
     47 H          -5.5373    3.0021    2.6821 H       1  UNL1        0.0619
     48 H          -4.3178    2.9414    0.6052 H       1  UNL1        0.0654
     49 H          -3.0567   -0.0447    0.8970 H       1  UNL1        0.0654
     50 H          -0.8255   -0.9924    0.9769 H       1  UNL1        0.0622
     51 H           3.6952   -0.0533   -2.8707 H       1  UNL1        0.1591
     52 H           2.2580   -4.0793   -2.4519 H       1  UNL1        0.1591
@<TRIPOS>BOND
     1     1     2    1
     2     2     3    1
     3     3     4    1
     4     4     5    1
     5     5     6    1
     6     6     7    1
     7     7     8    1
     8     8     9   ar
     9     9    10   ar
    10    10    11   ar
    11    11    12    1
    12    12    13    1
    13    13    14   ar
    14    14    15   ar
    15    15    16   ar
    16    16    17   ar
    17    17    18   ar
    18    11    19   ar
    19    19    20   ar
    20     7    21    1
    21    21    22    2
    22    21    23   am
    23    23    24   am
    24    24    25    2
    25    24    26   am
    26    26    27   am
    27    27    28    2
    28    27     7    1
    29    20     8   ar
    30    18    13   ar
    31     1    29    1
    32     1    30    1
    33     1    31    1
    34     2    32    1
    35     2    33    1
    36     3    34    1
    37     3    35    1
    38     4    36    1
    39     4    37    1
    40     5    38    1
    41     5    39    1
    42     6    40    1
    43     6    41    1
    44     9    42    1
    45    10    43    1
    46    14    44    1
    47    15    45    1
    48    16    46    1
    49    17    47    1
    50    18    48    1
    51    19    49    1
    52    20    50    1
    53    23    51    1
    54    26    52    1
