
     RDKit          3D

 56 59  0  0  0  0  0  0  0  0999 V2000
    8.6584   -1.4589   -0.1976 C   0  0  0  0  0  0  0  0  0  0  0  0
    7.3546   -1.9410    0.0284 O   0  0  0  0  0  0  0  0  0  0  0  0
    6.3517   -1.0481    0.3794 C   0  0  0  0  0  0  0  0  0  0  0  0
    5.0540   -1.4829    0.6135 C   0  0  0  0  0  0  0  0  0  0  0  0
    4.0502   -0.6123    0.9624 C   0  0  0  0  0  0  0  0  0  0  0  0
    4.2773    0.7387    1.0999 C   0  0  0  0  0  0  0  0  0  0  0  0
    3.2558    1.5660    1.4712 C   0  0  0  0  0  0  0  0  0  0  0  0
    1.9696    1.2551    1.7267 O   0  0  0  0  0  0  0  0  0  0  0  0
    1.0295    0.8422    0.8360 C   0  0  0  0  0  0  0  0  0  0  0  0
    0.5352    1.8411   -0.0316 C   0  0  0  0  0  0  0  0  0  0  0  0
   -0.4117    1.5088   -0.9504 C   0  0  0  0  0  0  0  0  0  0  0  0
   -0.9038    0.1985   -1.0522 C   0  0  0  0  0  0  0  0  0  0  0  0
   -1.9157   -0.1172   -2.0836 C   0  0  0  0  0  0  0  0  0  0  0  0
   -3.2467   -0.4112   -1.4704 C   0  0  0  0  0  0  0  0  0  0  0  0
   -3.3962   -1.5524   -0.9352 O   0  0  0  0  0  0  0  0  0  0  0  0
   -4.2688    0.5545   -1.4967 N   0  0  0  0  0  0  0  0  0  0  0  0
   -5.5353    0.2873   -0.9366 C   0  0  0  0  0  0  0  0  0  0  0  0
   -6.0590   -0.9188   -0.5224 C   0  0  0  0  0  0  0  0  0  0  0  0
   -7.3009   -0.6222   -0.0450 N   0  0  0  0  0  0  0  0  0  0  0  0
   -8.1675   -1.6834    0.4794 C   0  0  0  0  0  0  0  0  0  0  0  0
   -7.5319    0.6748   -0.1522 N   0  0  0  0  0  0  0  0  0  0  0  0
   -6.4797    1.2920   -0.6950 C   0  0  0  0  0  0  0  0  0  0  0  0
   -6.2698    2.7473   -0.9990 C   0  0  0  0  0  0  0  0  0  0  0  0
   -0.4359   -0.7865   -0.2183 C   0  0  0  0  0  0  0  0  0  0  0  0
   -0.9166   -2.1051   -0.3126 O   0  0  0  0  0  0  0  0  0  0  0  0
   -0.3554   -3.0346    0.6000 C   0  0  0  0  0  0  0  0  0  0  0  0
    0.5193   -0.4229    0.7017 C   0  0  0  0  0  0  0  0  0  0  0  0
    3.5993    2.9284    1.6140 C   0  0  0  0  0  0  0  0  0  0  0  0
    4.8690    3.4000    1.3944 C   0  0  0  0  0  0  0  0  0  0  0  0
    5.8134    2.5223    1.0289 N   0  0  0  0  0  0  0  0  0  0  0  0
    5.5830    1.2151    0.8712 C   0  0  0  0  0  0  0  0  0  0  0  0
    6.5394    0.3104    0.5270 C   0  0  0  0  0  0  0  0  0  0  0  0
    9.3695   -2.2849   -0.4258 H   0  0  0  0  0  0  0  0  0  0  0  0
    8.6177   -0.6848   -0.9783 H   0  0  0  0  0  0  0  0  0  0  0  0
    8.9669   -0.9252    0.7359 H   0  0  0  0  0  0  0  0  0  0  0  0
    4.8762   -2.5537    0.4986 H   0  0  0  0  0  0  0  0  0  0  0  0
    3.0720   -0.9911    1.1578 H   0  0  0  0  0  0  0  0  0  0  0  0
    0.9088    2.8474    0.0396 H   0  0  0  0  0  0  0  0  0  0  0  0
   -0.8261    2.2572   -1.6467 H   0  0  0  0  0  0  0  0  0  0  0  0
   -1.6052   -0.9554   -2.7440 H   0  0  0  0  0  0  0  0  0  0  0  0
   -2.0636    0.7472   -2.7644 H   0  0  0  0  0  0  0  0  0  0  0  0
   -4.0587    1.4800   -1.9488 H   0  0  0  0  0  0  0  0  0  0  0  0
   -5.6074   -1.9024   -0.5568 H   0  0  0  0  0  0  0  0  0  0  0  0
   -7.6109   -2.4200    1.0910 H   0  0  0  0  0  0  0  0  0  0  0  0
   -8.9412   -1.1882    1.0601 H   0  0  0  0  0  0  0  0  0  0  0  0
   -8.5947   -2.2692   -0.3644 H   0  0  0  0  0  0  0  0  0  0  0  0
   -6.9656    3.3817   -0.4406 H   0  0  0  0  0  0  0  0  0  0  0  0
   -6.3386    2.9746   -2.0675 H   0  0  0  0  0  0  0  0  0  0  0  0
   -5.2304    3.0501   -0.6735 H   0  0  0  0  0  0  0  0  0  0  0  0
   -0.5337   -2.7050    1.6668 H   0  0  0  0  0  0  0  0  0  0  0  0
    0.7610   -3.0404    0.4458 H   0  0  0  0  0  0  0  0  0  0  0  0
   -0.7404   -4.0425    0.5148 H   0  0  0  0  0  0  0  0  0  0  0  0
    0.8556   -1.2327    1.3815 H   0  0  0  0  0  0  0  0  0  0  0  0
    2.7985    3.6077    1.9093 H   0  0  0  0  0  0  0  0  0  0  0  0
    5.0852    4.4642    1.5168 H   0  0  0  0  0  0  0  0  0  0  0  0
    7.5400    0.7008    0.3576 H   0  0  0  0  0  0  0  0  0  0  0  0
  1  2  1  0
  2  3  1  0
  3  4  2  0
  4  5  1  0
  5  6  2  0
  6  7  1  0
  7  8  1  0
  8  9  1  0
  9 10  2  0
 10 11  1  0
 11 12  2  0
 12 13  1  0
 13 14  1  0
 14 15  2  0
 14 16  1  0
 16 17  1  0
 17 18  2  0
 18 19  1  0
 19 20  1  0
 19 21  1  0
 21 22  2  0
 22 23  1  0
 12 24  1  0
 24 25  1  0
 25 26  1  0
 24 27  2  0
  7 28  2  0
 28 29  1  0
 29 30  2  0
 30 31  1  0
 31 32  2  0
 32  3  1  0
 31  6  1  0
 27  9  1  0
 22 17  1  0
  1 33  1  0
  1 34  1  0
  1 35  1  0
  4 36  1  0
  5 37  1  0
 10 38  1  0
 11 39  1  0
 13 40  1  0
 13 41  1  0
 16 42  1  0
 18 43  1  0
 20 44  1  0
 20 45  1  0
 20 46  1  0
 23 47  1  0
 23 48  1  0
 23 49  1  0
 26 50  1  0
 26 51  1  0
 26 52  1  0
 27 53  1  0
 28 54  1  0
 29 55  1  0
 32 56  1  0
M  END
$$$$
