@<TRIPOS>MOLECULE
*****
 56 59 0 0 0
SMALL
GASTEIGER

@<TRIPOS>ATOM
      1 C           8.6584   -1.4589   -0.1976 C.3     1  UNL1        0.0788
      2 O           7.3546   -1.9410    0.0284 O.3     1  UNL1       -0.4950
      3 C           6.3517   -1.0481    0.3794 C.ar    1  UNL1        0.1221
      4 C           5.0540   -1.4829    0.6135 C.ar    1  UNL1       -0.0192
      5 C           4.0502   -0.6123    0.9624 C.ar    1  UNL1       -0.0456
      6 C           4.2773    0.7387    1.0999 C.ar    1  UNL1        0.0429
      7 C           3.2558    1.5660    1.4712 C.ar    1  UNL1        0.1390
      8 O           1.9696    1.2551    1.7267 O.3     1  UNL1       -0.4552
      9 C           1.0295    0.8422    0.8360 C.ar    1  UNL1        0.1320
     10 C           0.5352    1.8411   -0.0316 C.ar    1  UNL1       -0.0188
     11 C          -0.4117    1.5088   -0.9504 C.ar    1  UNL1       -0.0512
     12 C          -0.9038    0.1985   -1.0522 C.ar    1  UNL1        0.0032
     13 C          -1.9157   -0.1172   -2.0836 C.3     1  UNL1        0.0529
     14 C          -3.2467   -0.4112   -1.4704 C.2     1  UNL1        0.2217
     15 O          -3.3962   -1.5524   -0.9352 O.2     1  UNL1       -0.2751
     16 N          -4.2688    0.5545   -1.4967 N.am    1  UNL1       -0.2826
     17 C          -5.5353    0.2873   -0.9366 C.ar    1  UNL1        0.0742
     18 C          -6.0590   -0.9188   -0.5224 C.ar    1  UNL1        0.0467
     19 N          -7.3009   -0.6222   -0.0450 N.ar    1  UNL1       -0.2724
     20 C          -8.1675   -1.6834    0.4794 C.3     1  UNL1        0.0303
     21 N          -7.5319    0.6748   -0.1522 N.ar    1  UNL1       -0.1748
     22 C          -6.4797    1.2920   -0.6950 C.ar    1  UNL1        0.0811
     23 C          -6.2698    2.7473   -0.9990 C.3     1  UNL1       -0.0188
     24 C          -0.4359   -0.7865   -0.2183 C.ar    1  UNL1        0.1272
     25 O          -0.9166   -2.1051   -0.3126 O.3     1  UNL1       -0.4947
     26 C          -0.3554   -3.0346    0.6000 C.3     1  UNL1        0.0788
     27 C           0.5193   -0.4229    0.7017 C.ar    1  UNL1        0.0227
     28 C           3.5993    2.9284    1.6140 C.ar    1  UNL1       -0.0006
     29 C           4.8690    3.4000    1.3944 C.ar    1  UNL1        0.0318
     30 N           5.8134    2.5223    1.0289 N.ar    1  UNL1       -0.2546
     31 C           5.5830    1.2151    0.8712 C.ar    1  UNL1        0.0779
     32 C           6.5394    0.3104    0.5270 C.ar    1  UNL1        0.0061
     33 H           9.3695   -2.2849   -0.4258 H       1  UNL1        0.0660
     34 H           8.6177   -0.6848   -0.9783 H       1  UNL1        0.0660
     35 H           8.9669   -0.9252    0.7359 H       1  UNL1        0.0660
     36 H           4.8762   -2.5537    0.4986 H       1  UNL1        0.0654
     37 H           3.0720   -0.9911    1.1578 H       1  UNL1        0.0626
     38 H           0.9088    2.8474    0.0396 H       1  UNL1        0.0654
     39 H          -0.8261    2.2572   -1.6467 H       1  UNL1        0.0623
     40 H          -1.6052   -0.9554   -2.7440 H       1  UNL1        0.0408
     41 H          -2.0636    0.7472   -2.7644 H       1  UNL1        0.0408
     42 H          -4.0587    1.4800   -1.9488 H       1  UNL1        0.1549
     43 H          -5.6074   -1.9024   -0.5568 H       1  UNL1        0.0845
     44 H          -7.6109   -2.4200    1.0910 H       1  UNL1        0.0473
     45 H          -8.9412   -1.1882    1.0601 H       1  UNL1        0.0473
     46 H          -8.5947   -2.2692   -0.3644 H       1  UNL1        0.0473
     47 H          -6.9656    3.3817   -0.4406 H       1  UNL1        0.0294
     48 H          -6.3386    2.9746   -2.0675 H       1  UNL1        0.0294
     49 H          -5.2304    3.0501   -0.6735 H       1  UNL1        0.0294
     50 H          -0.5337   -2.7050    1.6668 H       1  UNL1        0.0660
     51 H           0.7610   -3.0404    0.4458 H       1  UNL1        0.0660
     52 H          -0.7404   -4.0425    0.5148 H       1  UNL1        0.0660
     53 H           0.8556   -1.2327    1.3815 H       1  UNL1        0.0691
     54 H           2.7985    3.6077    1.9093 H       1  UNL1        0.0670
     55 H           5.0852    4.4642    1.5168 H       1  UNL1        0.0831
     56 H           7.5400    0.7008    0.3576 H       1  UNL1        0.0676
@<TRIPOS>BOND
     1     1     2    1
     2     2     3    1
     3     3     4   ar
     4     4     5   ar
     5     5     6   ar
     6     6     7   ar
     7     7     8    1
     8     8     9    1
     9     9    10   ar
    10    10    11   ar
    11    11    12   ar
    12    12    13    1
    13    13    14    1
    14    14    15    2
    15    14    16   am
    16    16    17    1
    17    17    18   ar
    18    18    19   ar
    19    19    20    1
    20    19    21   ar
    21    21    22   ar
    22    22    23    1
    23    12    24   ar
    24    24    25    1
    25    25    26    1
    26    24    27   ar
    27     7    28   ar
    28    28    29   ar
    29    29    30   ar
    30    30    31   ar
    31    31    32   ar
    32    32     3   ar
    33    31     6   ar
    34    27     9   ar
    35    22    17   ar
    36     1    33    1
    37     1    34    1
    38     1    35    1
    39     4    36    1
    40     5    37    1
    41    10    38    1
    42    11    39    1
    43    13    40    1
    44    13    41    1
    45    16    42    1
    46    18    43    1
    47    20    44    1
    48    20    45    1
    49    20    46    1
    50    23    47    1
    51    23    48    1
    52    23    49    1
    53    26    50    1
    54    26    51    1
    55    26    52    1
    56    27    53    1
    57    28    54    1
    58    29    55    1
    59    32    56    1
