@<TRIPOS>MOLECULE
*****
 40 43 0 0 0
SMALL
GASTEIGER

@<TRIPOS>ATOM
      1 C          -1.2837   -4.1070   -0.3067 C.3     1  UNL1       -0.0397
      2 C          -1.6341   -2.6584   -0.3121 C.ar    1  UNL1       -0.0498
      3 C          -2.6451   -2.1729   -1.1107 C.ar    1  UNL1       -0.0569
      4 C          -2.9418   -0.8288   -1.0902 C.ar    1  UNL1       -0.0373
      5 C          -2.2434    0.0582   -0.2792 C.ar    1  UNL1        0.0498
      6 C          -1.2336   -0.4317    0.5173 C.ar    1  UNL1        0.0037
      7 C          -0.9324   -1.7741    0.5013 C.ar    1  UNL1       -0.0494
      8 C          -0.7207    0.6499    1.2041 C.ar    1  UNL1       -0.0158
      9 C           0.3815    0.5813    2.1728 C.3     1  UNL1        0.0233
     10 C           1.6994    0.4322    1.4327 C.ar    1  UNL1        0.0841
     11 N           2.4616   -0.3208    1.0012 N.ar    1  UNL1       -0.2406
     12 C           3.5943   -0.1141    0.3655 C.ar    1  UNL1        0.1192
     13 C           4.5281   -1.0229   -0.1628 C.ar    1  UNL1        0.1849
     14 F           4.3422   -2.3713   -0.0640 F       1  UNL1       -0.2002
     15 C           5.6611   -0.5920   -0.7975 C.ar    1  UNL1        0.1633
     16 F           6.5358   -1.5398   -1.2926 F       1  UNL1       -0.2023
     17 C           5.9746    0.7343   -0.9683 C.ar    1  UNL1        0.0129
     18 C           5.0612    1.6694   -0.4512 C.ar    1  UNL1        0.1420
     19 F           5.2686    2.9877   -0.5627 F       1  UNL1       -0.2042
     20 C           3.9323    1.2055    0.1811 C.ar    1  UNL1        0.0773
     21 S           2.5238    2.0502    0.9762 S.2     1  UNL1       -0.0688
     22 C          -1.4091    1.7693    0.8276 C.ar    1  UNL1        0.0099
     23 N          -2.3276    1.3842   -0.0731 N.ar    1  UNL1       -0.3356
     24 C          -3.2528    2.2880   -0.7062 C.3     1  UNL1        0.1202
     25 C          -4.4879    2.3819    0.1034 C.2     1  UNL1        0.3247
     26 O          -4.5850    1.7183    1.1620 O.2     1  UNL1       -0.2490
     27 O          -5.5091    3.2024   -0.3287 O.3     1  UNL1       -0.4794
     28 H          -0.7238   -4.3217    0.6242 H       1  UNL1        0.0278
     29 H          -2.1931   -4.7519   -0.3132 H       1  UNL1        0.0278
     30 H          -0.6120   -4.3568   -1.1755 H       1  UNL1        0.0278
     31 H          -3.1770   -2.8736   -1.7339 H       1  UNL1        0.0621
     32 H          -3.7260   -0.4617   -1.7117 H       1  UNL1        0.0638
     33 H          -0.1408   -2.1509    1.1272 H       1  UNL1        0.0627
     34 H           0.3165   -0.3328    2.7969 H       1  UNL1        0.0383
     35 H           0.3894    1.4878    2.8116 H       1  UNL1        0.0383
     36 H           6.8619    1.0326   -1.4655 H       1  UNL1        0.0676
     37 H          -1.2521    2.7754    1.1808 H       1  UNL1        0.0812
     38 H          -3.5069    1.8934   -1.7215 H       1  UNL1        0.0607
     39 H          -2.8236    3.3045   -0.8641 H       1  UNL1        0.0607
     40 H          -6.1707    3.5765    0.3334 H       1  UNL1        0.2951
@<TRIPOS>BOND
     1     1     2    1
     2     2     3   ar
     3     3     4   ar
     4     4     5   ar
     5     5     6   ar
     6     6     7   ar
     7     6     8   ar
     8     8     9    1
     9     9    10    1
    10    10    11   ar
    11    11    12   ar
    12    12    13   ar
    13    13    14    1
    14    13    15   ar
    15    15    16    1
    16    15    17   ar
    17    17    18   ar
    18    18    19    1
    19    18    20   ar
    20    20    21   ar
    21     8    22   ar
    22    22    23   ar
    23    23    24    1
    24    24    25    1
    25    25    26    2
    26    25    27    1
    27     7     2   ar
    28    21    10   ar
    29    23     5   ar
    30    20    12   ar
    31     1    28    1
    32     1    29    1
    33     1    30    1
    34     3    31    1
    35     4    32    1
    36     7    33    1
    37     9    34    1
    38     9    35    1
    39    17    36    1
    40    22    37    1
    41    24    38    1
    42    24    39    1
    43    27    40    1
