
     RDKit          3D

 40 43  0  0  0  0  0  0  0  0999 V2000
   -1.2837   -4.1070   -0.3067 C   0  0  0  0  0  0  0  0  0  0  0  0
   -1.6341   -2.6584   -0.3121 C   0  0  0  0  0  0  0  0  0  0  0  0
   -2.6451   -2.1729   -1.1107 C   0  0  0  0  0  0  0  0  0  0  0  0
   -2.9418   -0.8288   -1.0902 C   0  0  0  0  0  0  0  0  0  0  0  0
   -2.2434    0.0582   -0.2792 C   0  0  0  0  0  0  0  0  0  0  0  0
   -1.2336   -0.4317    0.5173 C   0  0  0  0  0  0  0  0  0  0  0  0
   -0.9324   -1.7741    0.5013 C   0  0  0  0  0  0  0  0  0  0  0  0
   -0.7207    0.6499    1.2041 C   0  0  0  0  0  0  0  0  0  0  0  0
    0.3815    0.5813    2.1728 C   0  0  0  0  0  0  0  0  0  0  0  0
    1.6994    0.4322    1.4327 C   0  0  0  0  0  0  0  0  0  0  0  0
    2.4616   -0.3208    1.0012 N   0  0  0  0  0  0  0  0  0  0  0  0
    3.5943   -0.1141    0.3655 C   0  0  0  0  0  0  0  0  0  0  0  0
    4.5281   -1.0229   -0.1628 C   0  0  0  0  0  0  0  0  0  0  0  0
    4.3422   -2.3713   -0.0640 F   0  0  0  0  0  0  0  0  0  0  0  0
    5.6611   -0.5920   -0.7975 C   0  0  0  0  0  0  0  0  0  0  0  0
    6.5358   -1.5398   -1.2926 F   0  0  0  0  0  0  0  0  0  0  0  0
    5.9746    0.7343   -0.9683 C   0  0  0  0  0  0  0  0  0  0  0  0
    5.0612    1.6694   -0.4512 C   0  0  0  0  0  0  0  0  0  0  0  0
    5.2686    2.9877   -0.5627 F   0  0  0  0  0  0  0  0  0  0  0  0
    3.9323    1.2055    0.1811 C   0  0  0  0  0  0  0  0  0  0  0  0
    2.5238    2.0502    0.9762 S   0  0  0  0  0  0  0  0  0  0  0  0
   -1.4091    1.7693    0.8276 C   0  0  0  0  0  0  0  0  0  0  0  0
   -2.3276    1.3842   -0.0731 N   0  0  0  0  0  0  0  0  0  0  0  0
   -3.2528    2.2880   -0.7062 C   0  0  0  0  0  0  0  0  0  0  0  0
   -4.4879    2.3819    0.1034 C   0  0  0  0  0  0  0  0  0  0  0  0
   -4.5850    1.7183    1.1620 O   0  0  0  0  0  0  0  0  0  0  0  0
   -5.5091    3.2024   -0.3287 O   0  0  0  0  0  0  0  0  0  0  0  0
   -0.7238   -4.3217    0.6242 H   0  0  0  0  0  0  0  0  0  0  0  0
   -2.1931   -4.7519   -0.3132 H   0  0  0  0  0  0  0  0  0  0  0  0
   -0.6120   -4.3568   -1.1755 H   0  0  0  0  0  0  0  0  0  0  0  0
   -3.1770   -2.8736   -1.7339 H   0  0  0  0  0  0  0  0  0  0  0  0
   -3.7260   -0.4617   -1.7117 H   0  0  0  0  0  0  0  0  0  0  0  0
   -0.1408   -2.1509    1.1272 H   0  0  0  0  0  0  0  0  0  0  0  0
    0.3165   -0.3328    2.7969 H   0  0  0  0  0  0  0  0  0  0  0  0
    0.3894    1.4878    2.8116 H   0  0  0  0  0  0  0  0  0  0  0  0
    6.8619    1.0326   -1.4655 H   0  0  0  0  0  0  0  0  0  0  0  0
   -1.2521    2.7754    1.1808 H   0  0  0  0  0  0  0  0  0  0  0  0
   -3.5069    1.8934   -1.7215 H   0  0  0  0  0  0  0  0  0  0  0  0
   -2.8236    3.3045   -0.8641 H   0  0  0  0  0  0  0  0  0  0  0  0
   -6.1707    3.5765    0.3334 H   0  0  0  0  0  0  0  0  0  0  0  0
  1  2  1  0
  2  3  2  0
  3  4  1  0
  4  5  2  0
  5  6  1  0
  6  7  2  0
  6  8  1  0
  8  9  1  0
  9 10  1  0
 10 11  2  0
 11 12  1  0
 12 13  2  0
 13 14  1  0
 13 15  1  0
 15 16  1  0
 15 17  2  0
 17 18  1  0
 18 19  1  0
 18 20  2  0
 20 21  1  0
  8 22  2  0
 22 23  1  0
 23 24  1  0
 24 25  1  0
 25 26  2  0
 25 27  1  0
  7  2  1  0
 21 10  1  0
 23  5  1  0
 20 12  1  0
  1 28  1  0
  1 29  1  0
  1 30  1  0
  3 31  1  0
  4 32  1  0
  7 33  1  0
  9 34  1  0
  9 35  1  0
 17 36  1  0
 22 37  1  0
 24 38  1  0
 24 39  1  0
 27 40  1  0
M  END
$$$$
