@<TRIPOS>MOLECULE
*****
 72 77 0 0 0
SMALL
GASTEIGER

@<TRIPOS>ATOM
      1 C           6.5809    2.2759   -1.4654 C.3     1  UNL1       -0.0391
      2 C           7.1488    1.6967   -0.2295 C.ar    1  UNL1       -0.0420
      3 C           8.4873    1.9616    0.0581 C.ar    1  UNL1       -0.0443
      4 C           9.0372    1.4294    1.1980 C.ar    1  UNL1        0.0591
      5 C          10.4267    1.6527    1.5783 C.2     1  UNL1        0.3368
      6 O          11.1365    2.3605    0.8273 O.2     1  UNL1       -0.2451
      7 O          10.9993    1.1253    2.7209 O.3     1  UNL1       -0.4771
      8 C           8.2777    0.6530    2.0327 C.ar    1  UNL1       -0.0472
      9 C           6.9771    0.4055    1.7375 C.ar    1  UNL1       -0.0530
     10 C           6.3864    0.9192    0.6057 C.ar    1  UNL1       -0.0149
     11 C           4.9708    0.6295    0.3262 C.ar    1  UNL1       -0.0175
     12 C           4.0552    1.5823   -0.0493 C.ar    1  UNL1       -0.0523
     13 C           2.7329    1.2630   -0.3044 C.ar    1  UNL1       -0.0392
     14 C           2.2734   -0.0141   -0.1953 C.ar    1  UNL1        0.0455
     15 N           0.9082   -0.3502   -0.4633 N.am    1  UNL1       -0.1920
     16 C           0.3098   -1.6266   -0.3541 C.2     1  UNL1        0.3219
     17 O           0.8100   -2.7303   -0.0075 O.2     1  UNL1       -0.2512
     18 N          -1.0912   -1.5467   -0.7176 N.am    1  UNL1       -0.2241
     19 C          -1.9148   -2.6233   -1.1274 C.ar    1  UNL1        0.1328
     20 C          -2.0677   -3.0169   -2.4341 C.ar    1  UNL1       -0.0031
     21 C          -2.8744   -4.0681   -2.8112 C.ar    1  UNL1        0.0326
     22 N          -3.5401   -4.7311   -1.8233 N.ar    1  UNL1       -0.2436
     23 C          -3.3953   -4.3520   -0.5452 C.ar    1  UNL1        0.1180
     24 N          -2.5935   -3.3111   -0.1954 N.ar    1  UNL1       -0.2203
     25 C          -1.4343   -0.1431   -0.5641 C.3     1  UNL1        0.1240
     26 C          -2.5138    0.2737   -1.5361 C.3     1  UNL1       -0.0095
     27 C          -3.8957    0.0075   -0.9923 C.3     1  UNL1        0.0017
     28 N          -4.1186    0.7557    0.2045 N.3     1  UNL1       -0.2965
     29 C          -4.9021    0.0817    1.1899 C.3     1  UNL1        0.0415
     30 C          -6.2625   -0.2706    0.7166 C.ar    1  UNL1        0.0581
     31 N          -6.5820   -1.5279    0.3708 N.ar    1  UNL1       -0.2583
     32 C          -7.8143   -1.8711   -0.0627 C.ar    1  UNL1        0.0279
     33 C          -8.8123   -0.9230   -0.1689 C.ar    1  UNL1       -0.0433
     34 C          -8.5148    0.3700    0.1775 C.ar    1  UNL1       -0.0557
     35 C          -7.2417    0.6920    0.6189 C.ar    1  UNL1       -0.0279
     36 C          -6.9829    2.1189    0.9811 C.3     1  UNL1       -0.0380
     37 C          -2.9045    1.2472    0.8169 C.3     1  UNL1        0.0017
     38 C          -1.8044    0.2167    0.8348 C.3     1  UNL1       -0.0095
     39 C          -0.1384    0.5055   -0.8960 C.2     1  UNL1        0.2516
     40 O          -0.0011    1.6121   -1.4586 O.2     1  UNL1       -0.2724
     41 C           3.1702   -0.9864    0.1793 C.ar    1  UNL1       -0.0392
     42 C           4.5023   -0.6596    0.4353 C.ar    1  UNL1       -0.0523
     43 H           6.3400    3.3559   -1.3210 H       1  UNL1        0.0278
     44 H           5.7407    1.7123   -1.8903 H       1  UNL1        0.0278
     45 H           7.4077    2.2050   -2.2352 H       1  UNL1        0.0278
     46 H           9.0604    2.5657   -0.6011 H       1  UNL1        0.0628
     47 H          12.0219    1.0390    2.8322 H       1  UNL1        0.2954
     48 H           8.7105    0.2370    2.9247 H       1  UNL1        0.0626
     49 H           6.3816   -0.2036    2.3929 H       1  UNL1        0.0624
     50 H           4.3923    2.6256   -0.1436 H       1  UNL1        0.0624
     51 H           2.0651    2.0804   -0.5969 H       1  UNL1        0.0636
     52 H          -1.5376   -2.4870   -3.2069 H       1  UNL1        0.0667
     53 H          -3.0128   -4.3965   -3.8169 H       1  UNL1        0.0831
     54 H          -3.9521   -4.9205    0.1949 H       1  UNL1        0.1047
     55 H          -2.4348   -0.2818   -2.4943 H       1  UNL1        0.0303
     56 H          -2.4167    1.3652   -1.7091 H       1  UNL1        0.0303
     57 H          -4.6101    0.3951   -1.7740 H       1  UNL1        0.0427
     58 H          -4.1106   -1.0676   -0.9043 H       1  UNL1        0.0427
     59 H          -4.3612   -0.8483    1.4765 H       1  UNL1        0.0491
     60 H          -4.9283    0.7171    2.1057 H       1  UNL1        0.0491
     61 H          -8.0650   -2.8985   -0.3420 H       1  UNL1        0.0829
     62 H          -9.8181   -1.1849   -0.5190 H       1  UNL1        0.0633
     63 H          -9.3042    1.1048    0.0906 H       1  UNL1        0.0621
     64 H          -6.4139    2.6463    0.2002 H       1  UNL1        0.0278
     65 H          -7.9170    2.6636    1.1689 H       1  UNL1        0.0278
     66 H          -6.3839    2.1697    1.9131 H       1  UNL1        0.0278
     67 H          -2.5846    2.2116    0.3689 H       1  UNL1        0.0427
     68 H          -3.1440    1.4911    1.8909 H       1  UNL1        0.0427
     69 H          -2.1355   -0.6264    1.4516 H       1  UNL1        0.0303
     70 H          -0.9399    0.6997    1.3669 H       1  UNL1        0.0303
     71 H           2.9327   -2.0219    0.2992 H       1  UNL1        0.0636
     72 H           5.2273   -1.4319    0.7356 H       1  UNL1        0.0624
@<TRIPOS>BOND
     1     1     2    1
     2     2     3   ar
     3     3     4   ar
     4     4     5    1
     5     5     6    2
     6     5     7    1
     7     4     8   ar
     8     8     9   ar
     9     9    10   ar
    10    10    11    1
    11    11    12   ar
    12    12    13   ar
    13    13    14   ar
    14    14    15    1
    15    15    16   am
    16    16    17    2
    17    16    18   am
    18    18    19    1
    19    19    20   ar
    20    20    21   ar
    21    21    22   ar
    22    22    23   ar
    23    23    24   ar
    24    18    25    1
    25    25    26    1
    26    26    27    1
    27    27    28    1
    28    28    29    1
    29    29    30    1
    30    30    31   ar
    31    31    32   ar
    32    32    33   ar
    33    33    34   ar
    34    34    35   ar
    35    35    36    1
    36    28    37    1
    37    37    38    1
    38    25    39    1
    39    39    40    2
    40    14    41   ar
    41    41    42   ar
    42    10     2   ar
    43    42    11   ar
    44    39    15   am
    45    24    19   ar
    46    38    25    1
    47    35    30   ar
    48     1    43    1
    49     1    44    1
    50     1    45    1
    51     3    46    1
    52     7    47    1
    53     8    48    1
    54     9    49    1
    55    12    50    1
    56    13    51    1
    57    20    52    1
    58    21    53    1
    59    23    54    1
    60    26    55    1
    61    26    56    1
    62    27    57    1
    63    27    58    1
    64    29    59    1
    65    29    60    1
    66    32    61    1
    67    33    62    1
    68    34    63    1
    69    36    64    1
    70    36    65    1
    71    36    66    1
    72    37    67    1
    73    37    68    1
    74    38    69    1
    75    38    70    1
    76    41    71    1
    77    42    72    1
