@<TRIPOS>MOLECULE
*****
 43 46 0 0 0
SMALL
GASTEIGER

@<TRIPOS>ATOM
      1 CL         -5.1138    3.2367    2.1377 Cl      1  UNL1       -0.0835
      2 C          -4.7919    2.0276    0.9290 C.ar    1  UNL1        0.0429
      3 C          -3.5670    1.4016    0.8125 C.ar    1  UNL1       -0.0354
      4 C          -3.2603    0.4289   -0.1361 C.ar    1  UNL1       -0.0092
      5 C          -4.2337    0.0478   -1.0331 C.ar    1  UNL1       -0.0354
      6 C          -5.4709    0.6682   -0.9291 C.ar    1  UNL1        0.0429
      7 CL         -6.7505    0.2290   -2.0429 Cl      1  UNL1       -0.0835
      8 C          -5.7717    1.6357    0.0161 C.ar    1  UNL1       -0.0250
      9 C          -1.9100   -0.1272   -0.1130 C.2     1  UNL1        0.0595
     10 C          -1.2404   -0.3614    1.0038 C.2     1  UNL1        0.0657
     11 C          -1.5713   -0.1884    2.3826 C.1     1  UNL1        0.0978
     12 N          -1.8541   -0.0364    3.4917 N.1     1  UNL1       -0.1911
     13 C           0.1977   -0.7475    0.6182 C.3     1  UNL1        0.0772
     14 C           0.9034    0.5584    0.7721 C.3     1  UNL1       -0.0012
     15 C           2.3127    0.6647    0.4830 C.ar    1  UNL1       -0.0449
     16 C           3.3400    0.4213    1.3680 C.ar    1  UNL1       -0.0573
     17 C           4.6672    0.5829    0.9777 C.ar    1  UNL1       -0.0441
     18 C           5.0137    0.9894   -0.2963 C.ar    1  UNL1        0.0518
     19 C           4.0175    1.2453   -1.2159 C.ar    1  UNL1       -0.0441
     20 C           2.7248    1.0753   -0.7963 C.ar    1  UNL1       -0.0573
     21 C           6.3760    1.1586   -0.7146 C.1     1  UNL1        0.0992
     22 N           7.4803    1.2832   -1.0701 N.1     1  UNL1       -0.1909
     23 C           0.7032   -1.8824    1.4128 C.3     1  UNL1       -0.0248
     24 C           0.9172   -2.9878    0.3725 C.3     1  UNL1       -0.0348
     25 C           1.0689   -2.1403   -0.9061 C.3     1  UNL1        0.0160
     26 N          -0.0376   -1.1916   -0.7180 N.am    1  UNL1       -0.2867
     27 C          -1.1987   -0.6248   -1.3125 C.2     1  UNL1        0.2489
     28 O          -1.5039   -0.5768   -2.5140 O.2     1  UNL1       -0.2699
     29 H          -2.8346    1.7388    1.5430 H       1  UNL1        0.0638
     30 H          -4.0018   -0.7010   -1.7650 H       1  UNL1        0.0638
     31 H          -6.7324    2.1139    0.0937 H       1  UNL1        0.0647
     32 H           0.2738    1.3030    0.1881 H       1  UNL1        0.0337
     33 H           0.6952    0.8791    1.8394 H       1  UNL1        0.0337
     34 H           3.1201    0.1069    2.3776 H       1  UNL1        0.0621
     35 H           5.4436    0.3816    1.7012 H       1  UNL1        0.0630
     36 H           4.1979    1.5718   -2.2462 H       1  UNL1        0.0630
     37 H           1.9302    1.2794   -1.5267 H       1  UNL1        0.0621
     38 H          -0.0541   -2.1976    2.1642 H       1  UNL1        0.0290
     39 H           1.6840   -1.6880    1.8304 H       1  UNL1        0.0290
     40 H           0.0411   -3.6535    0.3249 H       1  UNL1        0.0281
     41 H           1.8449   -3.5499    0.5568 H       1  UNL1        0.0281
     42 H           1.9958   -1.6043   -0.8177 H       1  UNL1        0.0465
     43 H           0.9496   -2.7701   -1.8018 H       1  UNL1        0.0465
@<TRIPOS>BOND
     1     1     2    1
     2     2     3   ar
     3     3     4   ar
     4     4     5   ar
     5     5     6   ar
     6     6     7    1
     7     6     8   ar
     8     4     9    1
     9     9    10    2
    10    10    11    1
    11    11    12    3
    12    10    13    1
    13    13    14    1
    14    14    15    1
    15    15    16   ar
    16    16    17   ar
    17    17    18   ar
    18    18    19   ar
    19    19    20   ar
    20    18    21    1
    21    21    22    3
    22    13    23    1
    23    23    24    1
    24    24    25    1
    25    25    26    1
    26    26    27   am
    27    27    28    2
    28     8     2   ar
    29    27     9    1
    30    26    13    1
    31    20    15   ar
    32     3    29    1
    33     5    30    1
    34     8    31    1
    35    14    32    1
    36    14    33    1
    37    16    34    1
    38    17    35    1
    39    19    36    1
    40    20    37    1
    41    23    38    1
    42    23    39    1
    43    24    40    1
    44    24    41    1
    45    25    42    1
    46    25    43    1
