
     RDKit          3D

 43 46  0  0  0  0  0  0  0  0999 V2000
   -5.1138    3.2367    2.1377 Cl  0  0  0  0  0  0  0  0  0  0  0  0
   -4.7919    2.0276    0.9290 C   0  0  0  0  0  0  0  0  0  0  0  0
   -3.5670    1.4016    0.8125 C   0  0  0  0  0  0  0  0  0  0  0  0
   -3.2603    0.4289   -0.1361 C   0  0  0  0  0  0  0  0  0  0  0  0
   -4.2337    0.0478   -1.0331 C   0  0  0  0  0  0  0  0  0  0  0  0
   -5.4709    0.6682   -0.9291 C   0  0  0  0  0  0  0  0  0  0  0  0
   -6.7505    0.2290   -2.0429 Cl  0  0  0  0  0  0  0  0  0  0  0  0
   -5.7717    1.6357    0.0161 C   0  0  0  0  0  0  0  0  0  0  0  0
   -1.9100   -0.1272   -0.1130 C   0  0  0  0  0  0  0  0  0  0  0  0
   -1.2404   -0.3614    1.0038 C   0  0  0  0  0  0  0  0  0  0  0  0
   -1.5713   -0.1884    2.3826 C   0  0  0  0  0  0  0  0  0  0  0  0
   -1.8541   -0.0364    3.4917 N   0  0  0  0  0  0  0  0  0  0  0  0
    0.1977   -0.7475    0.6182 C   0  0  1  0  0  0  0  0  0  0  0  0
    0.9034    0.5584    0.7721 C   0  0  0  0  0  0  0  0  0  0  0  0
    2.3127    0.6647    0.4830 C   0  0  0  0  0  0  0  0  0  0  0  0
    3.3400    0.4213    1.3680 C   0  0  0  0  0  0  0  0  0  0  0  0
    4.6672    0.5829    0.9777 C   0  0  0  0  0  0  0  0  0  0  0  0
    5.0137    0.9894   -0.2963 C   0  0  0  0  0  0  0  0  0  0  0  0
    4.0175    1.2453   -1.2159 C   0  0  0  0  0  0  0  0  0  0  0  0
    2.7248    1.0753   -0.7963 C   0  0  0  0  0  0  0  0  0  0  0  0
    6.3760    1.1586   -0.7146 C   0  0  0  0  0  0  0  0  0  0  0  0
    7.4803    1.2832   -1.0701 N   0  0  0  0  0  0  0  0  0  0  0  0
    0.7032   -1.8824    1.4128 C   0  0  0  0  0  0  0  0  0  0  0  0
    0.9172   -2.9878    0.3725 C   0  0  0  0  0  0  0  0  0  0  0  0
    1.0689   -2.1403   -0.9061 C   0  0  0  0  0  0  0  0  0  0  0  0
   -0.0376   -1.1916   -0.7180 N   0  0  0  0  0  0  0  0  0  0  0  0
   -1.1987   -0.6248   -1.3125 C   0  0  0  0  0  0  0  0  0  0  0  0
   -1.5039   -0.5768   -2.5140 O   0  0  0  0  0  0  0  0  0  0  0  0
   -2.8346    1.7388    1.5430 H   0  0  0  0  0  0  0  0  0  0  0  0
   -4.0018   -0.7010   -1.7650 H   0  0  0  0  0  0  0  0  0  0  0  0
   -6.7324    2.1139    0.0937 H   0  0  0  0  0  0  0  0  0  0  0  0
    0.2738    1.3030    0.1881 H   0  0  0  0  0  0  0  0  0  0  0  0
    0.6952    0.8791    1.8394 H   0  0  0  0  0  0  0  0  0  0  0  0
    3.1201    0.1069    2.3776 H   0  0  0  0  0  0  0  0  0  0  0  0
    5.4436    0.3816    1.7012 H   0  0  0  0  0  0  0  0  0  0  0  0
    4.1979    1.5718   -2.2462 H   0  0  0  0  0  0  0  0  0  0  0  0
    1.9302    1.2794   -1.5267 H   0  0  0  0  0  0  0  0  0  0  0  0
   -0.0541   -2.1976    2.1642 H   0  0  0  0  0  0  0  0  0  0  0  0
    1.6840   -1.6880    1.8304 H   0  0  0  0  0  0  0  0  0  0  0  0
    0.0411   -3.6535    0.3249 H   0  0  0  0  0  0  0  0  0  0  0  0
    1.8449   -3.5499    0.5568 H   0  0  0  0  0  0  0  0  0  0  0  0
    1.9958   -1.6043   -0.8177 H   0  0  0  0  0  0  0  0  0  0  0  0
    0.9496   -2.7701   -1.8018 H   0  0  0  0  0  0  0  0  0  0  0  0
  1  2  1  0
  2  3  2  0
  3  4  1  0
  4  5  2  0
  5  6  1  0
  6  7  1  0
  6  8  2  0
  4  9  1  0
  9 10  2  0
 10 11  1  0
 11 12  3  0
 10 13  1  0
 13 14  1  6
 14 15  1  0
 15 16  2  0
 16 17  1  0
 17 18  2  0
 18 19  1  0
 19 20  2  0
 18 21  1  0
 21 22  3  0
 13 23  1  0
 23 24  1  0
 24 25  1  0
 25 26  1  0
 26 27  1  0
 27 28  2  0
  8  2  1  0
 27  9  1  0
 26 13  1  0
 20 15  1  0
  3 29  1  0
  5 30  1  0
  8 31  1  0
 14 32  1  0
 14 33  1  0
 16 34  1  0
 17 35  1  0
 19 36  1  0
 20 37  1  0
 23 38  1  0
 23 39  1  0
 24 40  1  0
 24 41  1  0
 25 42  1  0
 25 43  1  0
M  END
$$$$
