
     RDKit          3D

 83 87  0  0  0  0  0  0  0  0999 V2000
    7.3802    0.3386   -1.9088 C   0  0  1  0  0  0  0  0  0  0  0  0
    7.2893   -1.1833   -1.8317 C   0  0  0  0  0  0  0  0  0  0  0  0
    7.2910   -1.4967   -0.3566 C   0  0  0  0  0  0  0  0  0  0  0  0
    7.3172   -0.1113    0.2938 C   0  0  2  0  0  0  0  0  0  0  0  0
    5.8832    0.3494    0.4418 C   0  0  0  0  0  0  0  0  0  0  0  0
    5.1598    0.2454   -0.8874 C   0  0  2  0  0  0  0  0  0  0  0  0
    5.9750    0.9019   -1.9657 C   0  0  0  0  0  0  0  0  0  0  0  0
    3.4934    0.9454   -0.7538 S   0  0  0  0  0  0  0  0  0  0  0  0
    2.5519   -0.0944    0.3981 C   0  0  0  0  0  0  0  0  0  0  0  0
    1.1593    0.3165    0.5745 C   0  0  0  0  0  0  0  0  0  0  0  0
    1.0003    1.4666    1.0588 O   0  0  0  0  0  0  0  0  0  0  0  0
    0.1498   -0.5555    0.2120 O   0  0  0  0  0  0  0  0  0  0  0  0
   -1.2210   -0.2200    0.3565 C   0  0  2  0  0  0  0  0  0  0  0  0
   -1.7645   -1.0455    1.4993 C   0  0  0  0  0  0  0  0  0  0  0  0
   -2.8837   -0.4453    2.2647 C   0  0  1  0  0  0  0  0  0  0  0  0
   -2.9192   -1.2487    3.5825 C   0  0  0  0  0  0  0  0  0  0  0  0
   -2.6293    0.9426    2.6715 C   0  0  0  0  0  0  0  0  0  0  0  0
   -1.7125    1.1314    3.6140 C   0  0  0  0  0  0  0  0  0  0  0  0
   -4.2646   -0.5993    1.7186 C   0  0  1  0  0  0  0  0  0  0  0  0
   -5.1176   -0.3008    2.8148 O   0  0  0  0  0  0  0  0  0  0  0  0
   -4.6413    0.3769    0.6488 C   0  0  2  0  0  0  0  0  0  0  0  0
   -6.1617    0.6077    0.7253 C   0  0  0  0  0  0  0  0  0  0  0  0
   -4.4026   -0.1414   -0.7408 C   0  0  2  0  0  0  0  0  0  0  0  0
   -5.5706   -1.0830   -1.0771 C   0  0  0  0  0  0  0  0  0  0  0  0
   -5.0552   -1.7519   -2.3282 C   0  0  0  0  0  0  0  0  0  0  0  0
   -3.5540   -1.7969   -2.1587 C   0  0  0  0  0  0  0  0  0  0  0  0
   -3.0675   -2.4201   -3.1157 O   0  0  0  0  0  0  0  0  0  0  0  0
   -3.2537   -1.0552   -0.8755 C   0  0  1  0  0  0  0  0  0  0  0  0
   -1.8923   -0.4128   -0.9530 C   0  0  2  0  0  0  0  0  0  0  0  0
   -1.0492   -1.4492   -1.7285 C   0  0  0  0  0  0  0  0  0  0  0  0
   -1.9208    0.8123   -1.8153 C   0  0  2  0  0  0  0  0  0  0  0  0
   -1.6844    2.1124   -1.0876 C   0  0  0  0  0  0  0  0  0  0  0  0
   -3.1884    0.9782   -2.6247 C   0  0  0  0  0  0  0  0  0  0  0  0
   -4.4241    0.9380   -1.7582 C   0  0  0  0  0  0  0  0  0  0  0  0
    8.0458    0.6381   -0.6795 N   0  0  0  0  0  0  0  0  0  0  0  0
    8.2304    2.0230   -0.3928 C   0  0  0  0  0  0  0  0  0  0  0  0
    7.9527    0.5860   -2.8080 H   0  0  0  0  0  0  0  0  0  0  0  0
    8.2210   -1.5944   -2.2762 H   0  0  0  0  0  0  0  0  0  0  0  0
    6.4457   -1.5935   -2.3815 H   0  0  0  0  0  0  0  0  0  0  0  0
    8.1821   -2.0997   -0.0732 H   0  0  0  0  0  0  0  0  0  0  0  0
    6.3598   -1.9804   -0.0560 H   0  0  0  0  0  0  0  0  0  0  0  0
    7.7975   -0.1077    1.2717 H   0  0  0  0  0  0  0  0  0  0  0  0
    5.8052    1.3371    0.9032 H   0  0  0  0  0  0  0  0  0  0  0  0
    5.3890   -0.3751    1.1282 H   0  0  0  0  0  0  0  0  0  0  0  0
    5.0530   -0.8380   -1.1133 H   0  0  0  0  0  0  0  0  0  0  0  0
    5.9622    1.9844   -1.8195 H   0  0  0  0  0  0  0  0  0  0  0  0
    5.5860    0.6473   -2.9710 H   0  0  0  0  0  0  0  0  0  0  0  0
    2.6017   -1.1310    0.0273 H   0  0  0  0  0  0  0  0  0  0  0  0
    3.0750    0.0079    1.3821 H   0  0  0  0  0  0  0  0  0  0  0  0
   -1.2032    0.8226    0.7479 H   0  0  0  0  0  0  0  0  0  0  0  0
   -0.9112   -1.0457    2.2561 H   0  0  0  0  0  0  0  0  0  0  0  0
   -1.8824   -2.1124    1.2900 H   0  0  0  0  0  0  0  0  0  0  0  0
   -3.4448   -2.2126    3.3935 H   0  0  0  0  0  0  0  0  0  0  0  0
   -3.4456   -0.7015    4.3688 H   0  0  0  0  0  0  0  0  0  0  0  0
   -1.8773   -1.5073    3.8955 H   0  0  0  0  0  0  0  0  0  0  0  0
   -2.9552    1.9498    2.4529 H   0  0  0  0  0  0  0  0  0  0  0  0
   -0.9561    0.7809    4.3364 H   0  0  0  0  0  0  0  0  0  0  0  0
   -1.2583    1.9442    4.1624 H   0  0  0  0  0  0  0  0  0  0  0  0
   -4.5209   -1.6252    1.4648 H   0  0  0  0  0  0  0  0  0  0  0  0
   -4.7207    0.5150    3.2217 H   0  0  0  0  0  0  0  0  0  0  0  0
   -4.2229    1.3733    0.8418 H   0  0  0  0  0  0  0  0  0  0  0  0
   -6.5248    1.1782   -0.1412 H   0  0  0  0  0  0  0  0  0  0  0  0
   -6.6349   -0.3722    0.8375 H   0  0  0  0  0  0  0  0  0  0  0  0
   -6.4402    1.1950    1.6251 H   0  0  0  0  0  0  0  0  0  0  0  0
   -6.5097   -0.5487   -1.2591 H   0  0  0  0  0  0  0  0  0  0  0  0
   -5.6772   -1.8061   -0.2411 H   0  0  0  0  0  0  0  0  0  0  0  0
   -5.4695   -2.7907   -2.2942 H   0  0  0  0  0  0  0  0  0  0  0  0
   -5.3158   -1.1972   -3.2321 H   0  0  0  0  0  0  0  0  0  0  0  0
   -3.2775   -1.8659   -0.1280 H   0  0  0  0  0  0  0  0  0  0  0  0
   -1.1037   -1.2302   -2.8150 H   0  0  0  0  0  0  0  0  0  0  0  0
   -1.4007   -2.4626   -1.4612 H   0  0  0  0  0  0  0  0  0  0  0  0
    0.0115   -1.4056   -1.4669 H   0  0  0  0  0  0  0  0  0  0  0  0
   -1.1020    0.7876   -2.6000 H   0  0  0  0  0  0  0  0  0  0  0  0
   -2.2746    2.2621   -0.1855 H   0  0  0  0  0  0  0  0  0  0  0  0
   -0.6082    2.3439   -0.9724 H   0  0  0  0  0  0  0  0  0  0  0  0
   -2.0458    2.9225   -1.7938 H   0  0  0  0  0  0  0  0  0  0  0  0
   -3.1396    1.9976   -3.0621 H   0  0  0  0  0  0  0  0  0  0  0  0
   -3.2410    0.2972   -3.4992 H   0  0  0  0  0  0  0  0  0  0  0  0
   -5.2891    0.8624   -2.4731 H   0  0  0  0  0  0  0  0  0  0  0  0
   -4.5358    1.9396   -1.2960 H   0  0  0  0  0  0  0  0  0  0  0  0
    8.7288    2.1122    0.6003 H   0  0  0  0  0  0  0  0  0  0  0  0
    8.9531    2.4248   -1.1565 H   0  0  0  0  0  0  0  0  0  0  0  0
    7.3158    2.6192   -0.4336 H   0  0  0  0  0  0  0  0  0  0  0  0
  1  2  1  0
  2  3  1  0
  3  4  1  0
  4  5  1  0
  5  6  1  0
  6  7  1  0
  6  8  1  0
  8  9  1  0
  9 10  1  0
 10 11  2  0
 10 12  1  0
 12 13  1  0
 13 14  1  0
 14 15  1  0
 15 16  1  1
 15 17  1  0
 17 18  2  0
 15 19  1  0
 19 20  1  0
 19 21  1  0
 21 22  1  0
 21 23  1  0
 23 24  1  6
 24 25  1  0
 25 26  1  0
 26 27  2  0
 26 28  1  0
 28 29  1  0
 29 30  1  6
 29 31  1  0
 31 32  1  0
 31 33  1  0
 33 34  1  0
  4 35  1  0
 35 36  1  0
  7  1  1  0
 29 13  1  0
 35  1  1  0
 28 23  1  0
 34 23  1  0
  1 37  1  6
  2 38  1  0
  2 39  1  0
  3 40  1  0
  3 41  1  0
  4 42  1  1
  5 43  1  0
  5 44  1  0
  6 45  1  6
  7 46  1  0
  7 47  1  0
  9 48  1  0
  9 49  1  0
 13 50  1  1
 14 51  1  0
 14 52  1  0
 16 53  1  0
 16 54  1  0
 16 55  1  0
 17 56  1  0
 18 57  1  0
 18 58  1  0
 19 59  1  6
 20 60  1  0
 21 61  1  1
 22 62  1  0
 22 63  1  0
 22 64  1  0
 24 65  1  0
 24 66  1  0
 25 67  1  0
 25 68  1  0
 28 69  1  1
 30 70  1  0
 30 71  1  0
 30 72  1  0
 31 73  1  6
 32 74  1  0
 32 75  1  0
 32 76  1  0
 33 77  1  0
 33 78  1  0
 34 79  1  0
 34 80  1  0
 36 81  1  0
 36 82  1  0
 36 83  1  0
M  END
$$$$
