
     RDKit          3D

 31 33  0  0  0  0  0  0  0  0999 V2000
   -6.2804   -0.0411   -0.5330 C   0  0  0  0  0  0  0  0  0  0  0  0
   -4.8401   -0.0841   -0.1677 C   0  0  0  0  0  0  0  0  0  0  0  0
   -4.4821   -0.4137    1.1222 C   0  0  0  0  0  0  0  0  0  0  0  0
   -3.1309   -0.4543    1.4658 C   0  0  0  0  0  0  0  0  0  0  0  0
   -2.1767   -0.1653    0.5139 C   0  0  0  0  0  0  0  0  0  0  0  0
   -0.8350   -0.1293    0.5678 N   0  0  0  0  0  0  0  0  0  0  0  0
   -0.3128    0.2035   -0.6100 C   0  0  0  0  0  0  0  0  0  0  0  0
    1.4185    0.3673   -0.9815 S   0  0  0  0  0  0  0  0  0  0  0  0
    2.4070    0.0071    0.5124 C   0  0  0  0  0  0  0  0  0  0  0  0
    3.8426    0.1304    0.2511 C   0  0  0  0  0  0  0  0  0  0  0  0
    4.5753   -0.9556   -0.1789 C   0  0  0  0  0  0  0  0  0  0  0  0
    5.9281   -0.8566   -0.4297 C   0  0  0  0  0  0  0  0  0  0  0  0
    6.5144    0.3727   -0.2320 C   0  0  0  0  0  0  0  0  0  0  0  0
    5.7492    1.4288    0.1970 C   0  0  0  0  0  0  0  0  0  0  0  0
    4.4432    1.3182    0.4352 N   0  0  0  0  0  0  0  0  0  0  0  0
   -1.3506    0.3854   -1.4404 N   0  0  0  0  0  0  0  0  0  0  0  0
   -2.5116    0.1638   -0.7712 C   0  0  0  0  0  0  0  0  0  0  0  0
   -3.8497    0.1995   -1.0945 C   0  0  0  0  0  0  0  0  0  0  0  0
   -6.8694   -0.5761    0.2403 H   0  0  0  0  0  0  0  0  0  0  0  0
   -6.4775   -0.5605   -1.4912 H   0  0  0  0  0  0  0  0  0  0  0  0
   -6.6567    1.0078   -0.5275 H   0  0  0  0  0  0  0  0  0  0  0  0
   -5.2569   -0.6364    1.8501 H   0  0  0  0  0  0  0  0  0  0  0  0
   -2.8647   -0.7151    2.4840 H   0  0  0  0  0  0  0  0  0  0  0  0
    2.1033   -1.0113    0.8387 H   0  0  0  0  0  0  0  0  0  0  0  0
    2.0499    0.7027    1.3116 H   0  0  0  0  0  0  0  0  0  0  0  0
    4.0543   -1.9024   -0.3170 H   0  0  0  0  0  0  0  0  0  0  0  0
    6.4589   -1.7217   -0.7614 H   0  0  0  0  0  0  0  0  0  0  0  0
    7.5733    0.4543   -0.4271 H   0  0  0  0  0  0  0  0  0  0  0  0
    6.2357    2.3740    0.3417 H   0  0  0  0  0  0  0  0  0  0  0  0
   -1.3100    0.6540   -2.4448 H   0  0  0  0  0  0  0  0  0  0  0  0
   -4.1487    0.4540   -2.0935 H   0  0  0  0  0  0  0  0  0  0  0  0
  1  2  1  0
  2  3  2  0
  3  4  1  0
  4  5  2  0
  5  6  1  0
  6  7  2  0
  7  8  1  0
  8  9  1  0
  9 10  1  0
 10 11  2  0
 11 12  1  0
 12 13  2  0
 13 14  1  0
 14 15  2  0
  7 16  1  0
 16 17  1  0
 17 18  2  0
 18  2  1  0
 17  5  1  0
 15 10  1  0
  1 19  1  0
  1 20  1  0
  1 21  1  0
  3 22  1  0
  4 23  1  0
  9 24  1  0
  9 25  1  0
 11 26  1  0
 12 27  1  0
 13 28  1  0
 14 29  1  0
 16 30  1  0
 18 31  1  0
M  END
$$$$
