@<TRIPOS>MOLECULE
*****
 30 32 0 0 0
SMALL
GASTEIGER

@<TRIPOS>ATOM
      1 C4*        -2.3179    0.7256    0.1756 C.3     1  UNL1        0.1126
      2 C5*        -2.8737   -0.6343    0.6110 C.3     1  UNL1        0.0730
      3 O5*        -4.1566   -0.8574    0.1717 O.3     1  UNL1       -0.3924
      4 O4*        -1.0343    0.7905    0.6932 O.3     1  UNL1       -0.3457
      5 C1*        -0.1238    0.5775   -0.3092 C.3     1  UNL1        0.1667
      6 N           0.9901   -0.2461    0.0674 N.ar    1  UNL1       -0.2856
      7 C           1.1063   -1.5570   -0.1906 C.ar    1  UNL1        0.1003
      8 N           2.2869   -2.0126    0.3098 N.ar    1  UNL1       -0.2325
      9 C           2.9341   -0.9677    0.8982 C.ar    1  UNL1        0.1260
     10 C           4.1593   -0.9359    1.5399 C.ar    1  UNL1        0.0583
     11 N           4.5239    0.2730    2.0219 N.ar    1  UNL1       -0.2414
     12 C           3.7336    1.3490    1.8740 C.ar    1  UNL1        0.1184
     13 N           2.5305    1.3017    1.2400 N.ar    1  UNL1       -0.2161
     14 C           2.1001    0.1225    0.7312 C.ar    1  UNL1        0.1655
     15 C2*        -0.8848   -0.0019   -1.4919 C.3     1  UNL1        0.1285
     16 O2*        -0.2692    0.2836   -2.7108 O.3     1  UNL1       -0.3847
     17 C3*        -2.1778    0.7868   -1.3308 C.3     1  UNL1        0.1135
     18 O3*        -1.8832    2.0949   -1.6822 O.3     1  UNL1       -0.3864
     19 H4*        -2.9588    1.5247    0.5870 H       1  UNL1        0.0647
     20 H5*1       -2.1954   -1.4537    0.2988 H       1  UNL1        0.0584
     21 H5*2       -2.8190   -0.6356    1.7339 H       1  UNL1        0.0584
     22 H5*        -4.1529   -1.6552   -0.4365 H       1  UNL1        0.2095
     23 H1*         0.1880    1.6029   -0.6629 H       1  UNL1        0.0866
     24 H           0.4490   -2.2465   -0.6980 H       1  UNL1        0.1030
     25 H           4.7198   -1.8597    1.6057 H       1  UNL1        0.0853
     26 H           4.1437    2.2609    2.3076 H       1  UNL1        0.1047
     27 H2*        -1.0852   -1.0833   -1.3720 H       1  UNL1        0.0665
     28 H2*        -0.2062   -0.5599   -3.2478 H       1  UNL1        0.2101
     29 H3*        -3.0133    0.3439   -1.8647 H       1  UNL1        0.0647
     30 H3*        -1.7132    2.6694   -0.8694 H       1  UNL1        0.2100
@<TRIPOS>BOND
     1     1     2    1
     2     2     3    1
     3     1     4    1
     4     4     5    1
     5     5     6    1
     6     6     7   ar
     7     7     8   ar
     8     8     9   ar
     9     9    10   ar
    10    10    11   ar
    11    11    12   ar
    12    12    13   ar
    13    13    14   ar
    14     5    15    1
    15    15    16    1
    16    15    17    1
    17    17    18    1
    18    17     1    1
    19    14     6   ar
    20    14     9   ar
    21     1    19    1
    22     2    20    1
    23     2    21    1
    24     3    22    1
    25     5    23    1
    26     7    24    1
    27    10    25    1
    28    12    26    1
    29    15    27    1
    30    16    28    1
    31    17    29    1
    32    18    30    1
