
     RDKit          3D

 30 32  0  0  0  0  0  0  0  0999 V2000
   -2.3179    0.7256    0.1756 C   0  0  1  0  0  0  0  0  0  0  0  0
   -2.8737   -0.6343    0.6110 C   0  0  0  0  0  0  0  0  0  0  0  0
   -4.1566   -0.8574    0.1717 O   0  0  0  0  0  0  0  0  0  0  0  0
   -1.0343    0.7905    0.6932 O   0  0  0  0  0  0  0  0  0  0  0  0
   -0.1238    0.5775   -0.3092 C   0  0  1  0  0  0  0  0  0  0  0  0
    0.9901   -0.2461    0.0674 N   0  0  0  0  0  0  0  0  0  0  0  0
    1.1063   -1.5570   -0.1906 C   0  0  0  0  0  0  0  0  0  0  0  0
    2.2869   -2.0126    0.3098 N   0  0  0  0  0  0  0  0  0  0  0  0
    2.9341   -0.9677    0.8982 C   0  0  0  0  0  0  0  0  0  0  0  0
    4.1593   -0.9359    1.5399 C   0  0  0  0  0  0  0  0  0  0  0  0
    4.5239    0.2730    2.0219 N   0  0  0  0  0  0  0  0  0  0  0  0
    3.7336    1.3490    1.8740 C   0  0  0  0  0  0  0  0  0  0  0  0
    2.5305    1.3017    1.2400 N   0  0  0  0  0  0  0  0  0  0  0  0
    2.1001    0.1225    0.7312 C   0  0  0  0  0  0  0  0  0  0  0  0
   -0.8848   -0.0019   -1.4919 C   0  0  2  0  0  0  0  0  0  0  0  0
   -0.2692    0.2836   -2.7108 O   0  0  0  0  0  0  0  0  0  0  0  0
   -2.1778    0.7868   -1.3308 C   0  0  2  0  0  0  0  0  0  0  0  0
   -1.8832    2.0949   -1.6822 O   0  0  0  0  0  0  0  0  0  0  0  0
   -2.9588    1.5247    0.5870 H   0  0  0  0  0  0  0  0  0  0  0  0
   -2.1954   -1.4537    0.2988 H   0  0  0  0  0  0  0  0  0  0  0  0
   -2.8190   -0.6356    1.7339 H   0  0  0  0  0  0  0  0  0  0  0  0
   -4.1529   -1.6552   -0.4365 H   0  0  0  0  0  0  0  0  0  0  0  0
    0.1880    1.6029   -0.6629 H   0  0  0  0  0  0  0  0  0  0  0  0
    0.4490   -2.2465   -0.6980 H   0  0  0  0  0  0  0  0  0  0  0  0
    4.7198   -1.8597    1.6057 H   0  0  0  0  0  0  0  0  0  0  0  0
    4.1437    2.2609    2.3076 H   0  0  0  0  0  0  0  0  0  0  0  0
   -1.0852   -1.0833   -1.3720 H   0  0  0  0  0  0  0  0  0  0  0  0
   -0.2062   -0.5599   -3.2478 H   0  0  0  0  0  0  0  0  0  0  0  0
   -3.0133    0.3439   -1.8647 H   0  0  0  0  0  0  0  0  0  0  0  0
   -1.7132    2.6694   -0.8694 H   0  0  0  0  0  0  0  0  0  0  0  0
  1  2  1  0
  2  3  1  0
  1  4  1  0
  4  5  1  0
  5  6  1  0
  6  7  1  0
  7  8  2  0
  8  9  1  0
  9 10  2  0
 10 11  1  0
 11 12  2  0
 12 13  1  0
 13 14  2  0
  5 15  1  0
 15 16  1  0
 15 17  1  0
 17 18  1  0
 17  1  1  0
 14  6  1  0
 14  9  1  0
  1 19  1  1
  2 20  1  0
  2 21  1  0
  3 22  1  0
  5 23  1  6
  7 24  1  0
 10 25  1  0
 12 26  1  0
 15 27  1  1
 16 28  1  0
 17 29  1  6
 18 30  1  0
M  END
$$$$
