@<TRIPOS>MOLECULE
*****
 37 39 0 0 0
SMALL
GASTEIGER

@<TRIPOS>ATOM
      1 C          -3.5526    1.9265    0.5879 C.3     1  UNL1       -0.0321
      2 C          -3.8674    0.5199    0.2352 C.3     1  UNL1        0.0868
      3 C          -4.8559    0.4507   -0.9349 C.3     1  UNL1       -0.0321
      4 O          -4.5471   -0.0460    1.3244 O.3     1  UNL1       -0.3845
      5 C          -2.6911   -0.2845   -0.1496 C.ar    1  UNL1        0.0035
      6 C          -2.8764   -1.6080   -0.4966 C.ar    1  UNL1        0.0336
      7 N          -1.8279   -2.3714   -0.8526 N.ar    1  UNL1       -0.2608
      8 C          -0.5598   -1.9278   -0.8990 C.ar    1  UNL1        0.0530
      9 C          -0.3421   -0.6149   -0.5594 C.ar    1  UNL1        0.0844
     10 N           0.9503   -0.0444   -0.5735 N.ar    1  UNL1       -0.2306
     11 N           1.3348    1.0470   -1.2094 N.ar    1  UNL1       -0.1736
     12 C           2.6222    1.3258   -1.0249 C.ar    1  UNL1        0.0581
     13 C           3.1095    0.3256   -0.1973 C.ar    1  UNL1        0.0318
     14 C           4.3769    0.0942    0.3310 C.ar    1  UNL1        0.0655
     15 C           5.4368    1.0558   -0.0190 C.3     1  UNL1        0.4181
     16 F           5.0880    2.3131    0.4137 F       1  UNL1       -0.1659
     17 F           5.4852    1.1251   -1.4159 F       1  UNL1       -0.1659
     18 F           6.6637    0.7189    0.4517 F       1  UNL1       -0.1659
     19 C           4.5483   -1.0043    1.1340 C.ar    1  UNL1       -0.0494
     20 C           3.4666   -1.8379    1.3898 C.ar    1  UNL1       -0.0592
     21 C           2.2310   -1.6156    0.8771 C.ar    1  UNL1       -0.0356
     22 C           2.0426   -0.5075    0.0625 C.ar    1  UNL1        0.0752
     23 C          -1.4033    0.1826   -0.1921 C.ar    1  UNL1       -0.0274
     24 H          -2.8972    2.4486   -0.1268 H       1  UNL1        0.0260
     25 H          -3.0804    1.9741    1.5859 H       1  UNL1        0.0260
     26 H          -4.5076    2.5019    0.6186 H       1  UNL1        0.0260
     27 H          -5.2697   -0.5782   -0.9204 H       1  UNL1        0.0260
     28 H          -5.6519    1.2125   -0.7765 H       1  UNL1        0.0260
     29 H          -4.2813    0.6852   -1.8446 H       1  UNL1        0.0260
     30 H          -3.9586   -0.0996    2.1128 H       1  UNL1        0.2106
     31 H          -3.8975   -2.0210   -0.4749 H       1  UNL1        0.0833
     32 H           0.2663   -2.5961   -1.1983 H       1  UNL1        0.0851
     33 H           3.1814    2.1479   -1.4253 H       1  UNL1        0.0854
     34 H           5.5290   -1.1886    1.5463 H       1  UNL1        0.0623
     35 H           3.6217   -2.7053    2.0296 H       1  UNL1        0.0618
     36 H           1.3627   -2.2370    1.0497 H       1  UNL1        0.0639
     37 H          -1.2491    1.2329    0.0823 H       1  UNL1        0.0643
@<TRIPOS>BOND
     1     1     2    1
     2     2     3    1
     3     2     4    1
     4     2     5    1
     5     5     6   ar
     6     6     7   ar
     7     7     8   ar
     8     8     9   ar
     9     9    10    1
    10    10    11   ar
    11    11    12   ar
    12    12    13   ar
    13    13    14   ar
    14    14    15    1
    15    15    16    1
    16    15    17    1
    17    15    18    1
    18    14    19   ar
    19    19    20   ar
    20    20    21   ar
    21    21    22   ar
    22     9    23   ar
    23    23     5   ar
    24    22    10   ar
    25    22    13   ar
    26     1    24    1
    27     1    25    1
    28     1    26    1
    29     3    27    1
    30     3    28    1
    31     3    29    1
    32     4    30    1
    33     6    31    1
    34     8    32    1
    35    12    33    1
    36    19    34    1
    37    20    35    1
    38    21    36    1
    39    23    37    1
