
     RDKit          3D

 47 50  0  0  0  0  0  0  0  0999 V2000
   -5.0942   -1.9221    0.3258 C   0  0  0  0  0  0  0  0  0  0  0  0
   -5.1274   -0.4325    0.5555 C   0  0  0  0  0  0  0  0  0  0  0  0
   -6.1864    0.2406   -0.2951 C   0  0  0  0  0  0  0  0  0  0  0  0
   -3.7452    0.1269    0.2382 C   0  0  2  0  0  0  0  0  0  0  0  0
   -3.7279    1.5418    0.4455 N   0  0  0  0  0  0  0  0  0  0  0  0
   -2.6410    1.9336    1.7195 S   0  0  0  0  0  6  0  0  0  0  0  0
   -3.0616    1.3053    3.0200 O   0  0  0  0  0  0  0  0  0  0  0  0
   -2.6510    3.4422    1.8803 O   0  0  0  0  0  0  0  0  0  0  0  0
   -1.0374    1.4251    1.2566 C   0  0  0  0  0  0  0  0  0  0  0  0
   -0.5289    0.2082    1.6447 C   0  0  0  0  0  0  0  0  0  0  0  0
    0.7419   -0.1572    1.2506 C   0  0  0  0  0  0  0  0  0  0  0  0
    1.5353    0.6536    0.4753 C   0  0  0  0  0  0  0  0  0  0  0  0
    1.0043    1.8744    0.0959 C   0  0  0  0  0  0  0  0  0  0  0  0
   -0.2704    2.2563    0.4831 C   0  0  0  0  0  0  0  0  0  0  0  0
    1.9409    2.4522   -0.6260 O   0  0  0  0  0  0  0  0  0  0  0  0
    3.0133    1.7044   -0.7347 C   0  0  0  0  0  0  0  0  0  0  0  0
    4.2335    1.8569   -1.3694 C   0  0  0  0  0  0  0  0  0  0  0  0
    5.2040    0.8809   -1.3152 C   0  0  0  0  0  0  0  0  0  0  0  0
    4.9890   -0.2872   -0.6220 C   0  0  0  0  0  0  0  0  0  0  0  0
    6.0786   -1.3043   -0.6014 C   0  0  0  0  0  0  0  0  0  0  0  0
    7.1458   -1.5435   -0.9668 N   0  0  0  0  0  0  0  0  0  0  0  0
    7.8832   -2.6160   -0.7571 C   0  0  0  0  0  0  0  0  0  0  0  0
    7.3355   -3.5669   -0.0225 C   0  0  0  0  0  0  0  0  0  0  0  0
    5.7074   -2.8959    0.3790 S   0  0  0  0  0  0  0  0  0  0  0  0
    3.7903   -0.4464    0.0062 C   0  0  0  0  0  0  0  0  0  0  0  0
    2.8015    0.5263   -0.0379 C   0  0  0  0  0  0  0  0  0  0  0  0
   -3.3569   -0.2173   -1.1594 C   0  0  0  0  0  0  0  0  0  0  0  0
   -3.3235   -1.4299   -1.4797 O   0  0  0  0  0  0  0  0  0  0  0  0
   -3.0362    0.7305   -2.1057 O   0  0  0  0  0  0  0  0  0  0  0  0
   -5.3953   -2.1801   -0.7234 H   0  0  0  0  0  0  0  0  0  0  0  0
   -4.0978   -2.3730    0.5044 H   0  0  0  0  0  0  0  0  0  0  0  0
   -5.8318   -2.4058    1.0316 H   0  0  0  0  0  0  0  0  0  0  0  0
   -5.3344   -0.1787    1.6099 H   0  0  0  0  0  0  0  0  0  0  0  0
   -7.1748    0.1341    0.1946 H   0  0  0  0  0  0  0  0  0  0  0  0
   -5.9769    1.3201   -0.4063 H   0  0  0  0  0  0  0  0  0  0  0  0
   -6.2276   -0.1825   -1.3223 H   0  0  0  0  0  0  0  0  0  0  0  0
   -3.0576   -0.3536    0.9548 H   0  0  0  0  0  0  0  0  0  0  0  0
   -3.5635    2.1166   -0.3906 H   0  0  0  0  0  0  0  0  0  0  0  0
   -1.0919   -0.4895    2.2635 H   0  0  0  0  0  0  0  0  0  0  0  0
    1.1711   -1.1124    1.5412 H   0  0  0  0  0  0  0  0  0  0  0  0
   -0.6875    3.2041    0.1908 H   0  0  0  0  0  0  0  0  0  0  0  0
    4.4346    2.7570   -1.9197 H   0  0  0  0  0  0  0  0  0  0  0  0
    6.1795    0.9919   -1.8171 H   0  0  0  0  0  0  0  0  0  0  0  0
    8.9038   -2.6869   -1.1869 H   0  0  0  0  0  0  0  0  0  0  0  0
    7.7117   -4.5897    0.3268 H   0  0  0  0  0  0  0  0  0  0  0  0
    3.5939   -1.3492    0.5558 H   0  0  0  0  0  0  0  0  0  0  0  0
   -3.1720    0.4768   -3.0904 H   0  0  0  0  0  0  0  0  0  0  0  0
  1  2  1  0
  2  3  1  0
  2  4  1  0
  4  5  1  0
  5  6  1  0
  6  7  2  0
  6  8  2  0
  6  9  1  0
  9 10  2  0
 10 11  1  0
 11 12  2  0
 12 13  1  0
 13 14  2  0
 13 15  1  0
 15 16  1  0
 16 17  2  0
 17 18  1  0
 18 19  2  0
 19 20  1  0
 20 21  2  0
 21 22  1  0
 22 23  2  0
 23 24  1  0
 19 25  1  0
 25 26  2  0
  4 27  1  0
 27 28  2  0
 27 29  1  0
 14  9  1  0
 26 16  1  0
 26 12  1  0
 24 20  1  0
  1 30  1  0
  1 31  1  0
  1 32  1  0
  2 33  1  0
  3 34  1  0
  3 35  1  0
  3 36  1  0
  4 37  1  1
  5 38  1  0
 10 39  1  0
 11 40  1  0
 14 41  1  0
 17 42  1  0
 18 43  1  0
 22 44  1  0
 23 45  1  0
 25 46  1  0
 29 47  1  0
M  END
$$$$
