@<TRIPOS>MOLECULE
*****
 47 50 0 0 0
SMALL
GASTEIGER

@<TRIPOS>ATOM
      1 C          -5.0942   -1.9221    0.3258 C.3     1  UNL1       -0.0607
      2 C          -5.1274   -0.4325    0.5555 C.3     1  UNL1       -0.0194
      3 C          -6.1864    0.2406   -0.2951 C.3     1  UNL1       -0.0607
      4 C          -3.7452    0.1269    0.2382 C.3     1  UNL1        0.1276
      5 N          -3.7279    1.5418    0.4455 N.3     1  UNL1       -0.1759
      6 S          -2.6410    1.9336    1.7195 S.O2    1  UNL1        0.0593
      7 O          -3.0616    1.3053    3.0200 O.2     1  UNL1       -0.1530
      8 O          -2.6510    3.4422    1.8803 O.2     1  UNL1       -0.1530
      9 C          -1.0374    1.4251    1.2566 C.ar    1  UNL1        0.1088
     10 C          -0.5289    0.2082    1.6447 C.ar    1  UNL1       -0.0345
     11 C           0.7419   -0.1572    1.2506 C.ar    1  UNL1       -0.0485
     12 C           1.5353    0.6536    0.4753 C.ar    1  UNL1        0.0280
     13 C           1.0043    1.8744    0.0959 C.ar    1  UNL1        0.1381
     14 C          -0.2704    2.2563    0.4831 C.ar    1  UNL1        0.0076
     15 O           1.9409    2.4522   -0.6260 O.2     1  UNL1       -0.4547
     16 C           3.0133    1.7044   -0.7347 C.ar    1  UNL1        0.1363
     17 C           4.2335    1.8569   -1.3694 C.ar    1  UNL1       -0.0181
     18 C           5.2040    0.8809   -1.3152 C.ar    1  UNL1       -0.0485
     19 C           4.9890   -0.2872   -0.6220 C.ar    1  UNL1        0.0079
     20 C           6.0786   -1.3043   -0.6014 C.ar    1  UNL1        0.1082
     21 N           7.1458   -1.5435   -0.9668 N.ar    1  UNL1       -0.2473
     22 C           7.8832   -2.6160   -0.7571 C.ar    1  UNL1        0.0354
     23 C           7.3355   -3.5669   -0.0225 C.ar    1  UNL1       -0.0042
     24 S           5.7074   -2.8959    0.3790 S.2     1  UNL1       -0.0757
     25 C           3.7903   -0.4464    0.0062 C.ar    1  UNL1       -0.0407
     26 C           2.8015    0.5263   -0.0379 C.ar    1  UNL1        0.0285
     27 C          -3.3569   -0.2173   -1.1594 C.2     1  UNL1        0.3238
     28 O          -3.3235   -1.4299   -1.4797 O.2     1  UNL1       -0.2492
     29 O          -3.0362    0.7305   -2.1057 O.3     1  UNL1       -0.4795
     30 H          -5.3953   -2.1801   -0.7234 H       1  UNL1        0.0233
     31 H          -4.0978   -2.3730    0.5044 H       1  UNL1        0.0233
     32 H          -5.8318   -2.4058    1.0316 H       1  UNL1        0.0233
     33 H          -5.3344   -0.1787    1.6099 H       1  UNL1        0.0316
     34 H          -7.1748    0.1341    0.1946 H       1  UNL1        0.0233
     35 H          -5.9769    1.3201   -0.4063 H       1  UNL1        0.0233
     36 H          -6.2276   -0.1825   -1.3223 H       1  UNL1        0.0233
     37 H          -3.0576   -0.3536    0.9548 H       1  UNL1        0.0595
     38 H          -3.5635    2.1166   -0.3906 H       1  UNL1        0.1489
     39 H          -1.0919   -0.4895    2.2635 H       1  UNL1        0.0637
     40 H           1.1711   -1.1124    1.5412 H       1  UNL1        0.0625
     41 H          -0.6875    3.2041    0.1908 H       1  UNL1        0.0674
     42 H           4.4346    2.7570   -1.9197 H       1  UNL1        0.0655
     43 H           6.1795    0.9919   -1.8171 H       1  UNL1        0.0625
     44 H           8.9038   -2.6869   -1.1869 H       1  UNL1        0.0835
     45 H           7.7117   -4.5897    0.3268 H       1  UNL1        0.0709
     46 H           3.5939   -1.3492    0.5558 H       1  UNL1        0.0631
     47 H          -3.1720    0.4768   -3.0904 H       1  UNL1        0.2951
@<TRIPOS>BOND
     1     1     2    1
     2     2     3    1
     3     2     4    1
     4     4     5    1
     5     5     6    1
     6     6     7    2
     7     6     8    2
     8     6     9    1
     9     9    10   ar
    10    10    11   ar
    11    11    12   ar
    12    12    13   ar
    13    13    14   ar
    14    13    15   ar
    15    15    16   ar
    16    16    17   ar
    17    17    18   ar
    18    18    19   ar
    19    19    20    1
    20    20    21   ar
    21    21    22   ar
    22    22    23   ar
    23    23    24   ar
    24    19    25   ar
    25    25    26   ar
    26     4    27    1
    27    27    28    2
    28    27    29    1
    29    14     9   ar
    30    26    16   ar
    31    26    12   ar
    32    24    20   ar
    33     1    30    1
    34     1    31    1
    35     1    32    1
    36     2    33    1
    37     3    34    1
    38     3    35    1
    39     3    36    1
    40     4    37    1
    41     5    38    1
    42    10    39    1
    43    11    40    1
    44    14    41    1
    45    17    42    1
    46    18    43    1
    47    22    44    1
    48    23    45    1
    49    25    46    1
    50    29    47    1
