@<TRIPOS>MOLECULE
*****
 72 76 0 0 0
SMALL
GASTEIGER

@<TRIPOS>ATOM
      1 O           6.4832    1.0862   -0.1472 O.2     1  UNL1       -0.2702
      2 C           7.0096    0.4115    0.7682 C.2     1  UNL1        0.2445
      3 N           6.1778   -0.1700    1.7519 N.am    1  UNL1       -0.3027
      4 C           4.7465    0.0292    1.6689 C.3     1  UNL1        0.0886
      5 C           4.2291   -0.5316    0.4097 C.2     1  UNL1        0.2328
      6 O           5.0654   -1.0882   -0.3734 O.2     1  UNL1       -0.2739
      7 N           2.8472   -0.4635    0.0623 N.am    1  UNL1       -0.2987
      8 C           1.7873    0.1320    0.8451 C.3     1  UNL1        0.0162
      9 C           1.0206    0.8381   -0.2977 C.3     1  UNL1       -0.0202
     10 C           0.8964   -0.2911   -1.2780 C.3     1  UNL1        0.0250
     11 N          -0.1351   -1.1767   -0.9209 N.3     1  UNL1       -0.3090
     12 C          -1.4505   -0.9897   -1.3780 C.3     1  UNL1        0.0081
     13 C          -2.3051   -2.0974   -0.7363 C.3     1  UNL1       -0.0346
     14 C          -3.6282   -1.5642   -0.2573 C.3     1  UNL1       -0.0170
     15 C          -4.2698   -0.6839   -1.3193 C.3     1  UNL1        0.1077
     16 O          -4.4849   -1.4872   -2.4637 O.3     1  UNL1       -0.3824
     17 C          -5.6140   -0.2941   -0.8115 C.ar    1  UNL1        0.0727
     18 C          -5.8160    0.8267   -0.0411 C.ar    1  UNL1       -0.0369
     19 C          -7.0792    1.1486    0.4039 C.ar    1  UNL1       -0.0478
     20 C          -8.1753    0.3680    0.0972 C.ar    1  UNL1        0.0372
     21 C          -9.5103    0.7115    0.5674 C.ar    1  UNL1        0.1611
     22 N         -10.5398   -0.0830    0.2271 N.ar    1  UNL1       -0.2356
     23 C         -11.7963    0.1802    0.6272 C.ar    1  UNL1        0.0314
     24 C         -12.0461    1.2738    1.3956 C.ar    1  UNL1       -0.0254
     25 C         -11.0062    2.0997    1.7551 C.ar    1  UNL1        0.0314
     26 N          -9.7611    1.7843    1.3224 N.ar    1  UNL1       -0.2356
     27 C          -7.9238   -0.7448   -0.6768 C.ar    1  UNL1        0.0387
     28 N          -6.6844   -1.0523   -1.1084 N.ar    1  UNL1       -0.2563
     29 C          -3.4101    0.4605   -1.7249 C.3     1  UNL1       -0.0170
     30 C          -2.0116    0.3608   -1.0713 C.3     1  UNL1       -0.0346
     31 C           2.2606   -0.9823   -1.1539 C.3     1  UNL1        0.0302
     32 C           8.4573    0.2483    0.7901 C.ar    1  UNL1        0.0372
     33 C           9.1134   -0.4842    1.7594 C.ar    1  UNL1       -0.0496
     34 C          10.4986   -0.6094    1.7412 C.ar    1  UNL1       -0.0605
     35 C          11.2517   -0.0010    0.7472 C.ar    1  UNL1       -0.0501
     36 C          10.6229    0.7355   -0.2325 C.ar    1  UNL1        0.0555
     37 C          11.3832    1.4225   -1.3375 C.3     1  UNL1        0.4174
     38 F          11.6557    2.7143   -0.9085 F       1  UNL1       -0.1659
     39 F          12.5374    0.7482   -1.5965 F       1  UNL1       -0.1659
     40 F          10.5323    1.5270   -2.4066 F       1  UNL1       -0.1659
     41 C           9.2608    0.8374   -0.1828 C.ar    1  UNL1       -0.0380
     42 H           6.5565   -0.7464    2.5488 H       1  UNL1        0.1495
     43 H           4.2310   -0.4813    2.5359 H       1  UNL1        0.0558
     44 H           4.4895    1.1012    1.8012 H       1  UNL1        0.0558
     45 H           1.1059   -0.6522    1.2011 H       1  UNL1        0.0465
     46 H           2.1149    0.8504    1.5887 H       1  UNL1        0.0465
     47 H           1.7496    1.5837   -0.7016 H       1  UNL1        0.0296
     48 H           0.1104    1.2826    0.0759 H       1  UNL1        0.0296
     49 H           0.7873    0.1043   -2.3329 H       1  UNL1        0.0476
     50 H           0.1718   -2.1736   -0.9513 H       1  UNL1        0.1225
     51 H          -1.4900   -1.1117   -2.5003 H       1  UNL1        0.0460
     52 H          -1.7862   -2.5227    0.1581 H       1  UNL1        0.0281
     53 H          -2.4497   -2.9015   -1.4637 H       1  UNL1        0.0281
     54 H          -4.3143   -2.4411   -0.1337 H       1  UNL1        0.0297
     55 H          -3.5271   -0.9808    0.6613 H       1  UNL1        0.0297
     56 H          -5.0402   -2.2777   -2.2341 H       1  UNL1        0.2107
     57 H          -4.9972    1.4713    0.2290 H       1  UNL1        0.0637
     58 H          -7.2591    2.0377    1.0187 H       1  UNL1        0.0626
     59 H         -12.6155   -0.4644    0.3471 H       1  UNL1        0.0831
     60 H         -13.0478    1.5351    1.7485 H       1  UNL1        0.0648
     61 H         -11.2128    2.9638    2.3655 H       1  UNL1        0.0831
     62 H          -8.7609   -1.3830   -0.9385 H       1  UNL1        0.0837
     63 H          -3.2436    0.4976   -2.8197 H       1  UNL1        0.0297
     64 H          -3.8632    1.4382   -1.4600 H       1  UNL1        0.0297
     65 H          -1.3994    1.1185   -1.6337 H       1  UNL1        0.0281
     66 H          -2.1108    0.5607    0.0027 H       1  UNL1        0.0281
     67 H           2.1583   -2.0828   -1.1532 H       1  UNL1        0.0480
     68 H           2.8796   -0.6169   -2.0011 H       1  UNL1        0.0480
     69 H           8.5509   -0.9812    2.5636 H       1  UNL1        0.0625
     70 H          10.9851   -1.1902    2.5181 H       1  UNL1        0.0618
     71 H          12.3292   -0.0994    0.7384 H       1  UNL1        0.0623
     72 H           8.7086    1.4124   -0.9391 H       1  UNL1        0.0631
@<TRIPOS>BOND
     1     1     2    2
     2     2     3   am
     3     3     4    1
     4     4     5    1
     5     5     6    2
     6     5     7   am
     7     7     8    1
     8     8     9    1
     9     9    10    1
    10    10    11    1
    11    11    12    1
    12    12    13    1
    13    13    14    1
    14    14    15    1
    15    15    16    1
    16    15    17    1
    17    17    18   ar
    18    18    19   ar
    19    19    20   ar
    20    20    21    1
    21    21    22   ar
    22    22    23   ar
    23    23    24   ar
    24    24    25   ar
    25    25    26   ar
    26    20    27   ar
    27    27    28   ar
    28    15    29    1
    29    29    30    1
    30    10    31    1
    31     2    32    1
    32    32    33   ar
    33    33    34   ar
    34    34    35   ar
    35    35    36   ar
    36    36    37    1
    37    37    38    1
    38    37    39    1
    39    37    40    1
    40    36    41   ar
    41    31     7    1
    42    41    32   ar
    43    30    12    1
    44    28    17   ar
    45    26    21   ar
    46     3    42    1
    47     4    43    1
    48     4    44    1
    49     8    45    1
    50     8    46    1
    51     9    47    1
    52     9    48    1
    53    10    49    1
    54    11    50    1
    55    12    51    1
    56    13    52    1
    57    13    53    1
    58    14    54    1
    59    14    55    1
    60    16    56    1
    61    18    57    1
    62    19    58    1
    63    23    59    1
    64    24    60    1
    65    25    61    1
    66    27    62    1
    67    29    63    1
    68    29    64    1
    69    30    65    1
    70    30    66    1
    71    31    67    1
    72    31    68    1
    73    33    69    1
    74    34    70    1
    75    35    71    1
    76    41    72    1
