@<TRIPOS>MOLECULE
*****
 52 55 0 0 0
SMALL
GASTEIGER

@<TRIPOS>ATOM
      1 C           6.6419    1.9672   -1.0648 C.3     1  UNL1       -0.0443
      2 C           5.4761    1.0111   -0.9664 C.3     1  UNL1        0.0789
      3 S           3.9661    1.7315   -1.5062 S.O2    1  UNL1        0.0294
      4 O           4.0816    2.0558   -2.9708 O.2     1  UNL1       -0.1582
      5 O           3.5958    2.9503   -0.7264 O.2     1  UNL1       -0.1582
      6 N           2.7188    0.5418   -1.3431 N.3     1  UNL1       -0.1886
      7 C           2.5498    0.1328    0.0326 C.3     1  UNL1        0.0605
      8 C           2.6136   -1.3778    0.1272 C.3     1  UNL1       -0.0035
      9 C           1.2533   -1.7333    0.6628 C.3     1  UNL1        0.0810
     10 C           1.2234   -2.9794    1.4652 C.3     1  UNL1       -0.0350
     11 O           0.9481   -0.5767    1.4222 O.3     1  UNL1       -0.3643
     12 C           1.0982    0.3784    0.3892 C.3     1  UNL1        0.0962
     13 C           0.7992    1.7585    0.8166 C.3     1  UNL1       -0.0335
     14 C           0.2613   -0.1499   -0.7301 C.3     1  UNL1        0.0804
     15 C          -1.1305    0.3195   -0.6528 C.2     1  UNL1        0.2329
     16 O          -1.4772    1.4644   -1.0794 O.2     1  UNL1       -0.2744
     17 N          -1.9586   -0.6695   -0.0566 N.am    1  UNL1       -0.2098
     18 C          -3.3828   -0.5056    0.1015 C.ar    1  UNL1        0.0445
     19 C          -4.2799   -0.9151   -0.8700 C.ar    1  UNL1       -0.0386
     20 C          -5.6497   -0.7237   -0.6549 C.ar    1  UNL1       -0.0420
     21 C          -6.1231   -0.1398    0.4964 C.ar    1  UNL1        0.0635
     22 C          -7.5084    0.0765    0.7550 C.1     1  UNL1        0.0997
     23 N          -8.6218    0.2698    0.9694 N.1     1  UNL1       -0.1909
     24 C          -5.2267    0.2680    1.4644 C.ar    1  UNL1        0.0739
     25 C          -5.6714    0.9054    2.7321 C.3     1  UNL1        0.4187
     26 F          -4.5763    1.2092    3.5105 F       1  UNL1       -0.1659
     27 F          -6.5445    0.1134    3.4341 F       1  UNL1       -0.1659
     28 F          -6.2566    2.1153    2.3754 F       1  UNL1       -0.1659
     29 C          -3.8995    0.0737    1.2377 C.ar    1  UNL1       -0.0270
     30 C          -1.1441   -1.7468    0.3099 C.2     1  UNL1        0.2329
     31 O          -1.4737   -2.6544    1.0961 O.2     1  UNL1       -0.2744
     32 C           0.1627   -1.6367   -0.3808 C.3     1  UNL1        0.0790
     33 H           6.3184    2.9927   -0.7593 H       1  UNL1        0.0246
     34 H           7.0864    1.9865   -2.0711 H       1  UNL1        0.0246
     35 H           7.4115    1.6141   -0.3488 H       1  UNL1        0.0246
     36 H           5.7093    0.1668   -1.6613 H       1  UNL1        0.0513
     37 H           5.4405    0.5939    0.0399 H       1  UNL1        0.0513
     38 H           2.8214   -0.2378   -2.0011 H       1  UNL1        0.1480
     39 H           3.2408    0.6439    0.7286 H       1  UNL1        0.0506
     40 H           2.8137   -1.8350   -0.8637 H       1  UNL1        0.0310
     41 H           3.3571   -1.6921    0.8846 H       1  UNL1        0.0310
     42 H           0.8015   -2.7226    2.4787 H       1  UNL1        0.0258
     43 H           0.5859   -3.7518    0.9891 H       1  UNL1        0.0258
     44 H           2.2460   -3.4073    1.5664 H       1  UNL1        0.0258
     45 H           0.3742    2.3845    0.0139 H       1  UNL1        0.0258
     46 H           1.7005    2.2932    1.2102 H       1  UNL1        0.0258
     47 H           0.0453    1.7648    1.6507 H       1  UNL1        0.0258
     48 H           0.7190   -0.0053   -1.7263 H       1  UNL1        0.0432
     49 H          -3.9197   -1.3722   -1.7723 H       1  UNL1        0.0637
     50 H          -6.3432   -1.0454   -1.4168 H       1  UNL1        0.0631
     51 H          -3.1619    0.3862    1.9868 H       1  UNL1        0.0642
     52 H           0.2881   -2.2912   -1.2362 H       1  UNL1        0.0431
@<TRIPOS>BOND
     1     1     2    1
     2     2     3    1
     3     3     4    2
     4     3     5    2
     5     3     6    1
     6     6     7    1
     7     7     8    1
     8     8     9    1
     9     9    10    1
    10     9    11    1
    11    11    12    1
    12    12    13    1
    13    12    14    1
    14    14    15    1
    15    15    16    2
    16    15    17   am
    17    17    18    1
    18    18    19   ar
    19    19    20   ar
    20    20    21   ar
    21    21    22    1
    22    22    23    3
    23    21    24   ar
    24    24    25    1
    25    25    26    1
    26    25    27    1
    27    25    28    1
    28    24    29   ar
    29    17    30   am
    30    30    31    2
    31    30    32    1
    32    12     7    1
    33    32    14    1
    34    32     9    1
    35    29    18   ar
    36     1    33    1
    37     1    34    1
    38     1    35    1
    39     2    36    1
    40     2    37    1
    41     6    38    1
    42     7    39    1
    43     8    40    1
    44     8    41    1
    45    10    42    1
    46    10    43    1
    47    10    44    1
    48    13    45    1
    49    13    46    1
    50    13    47    1
    51    14    48    1
    52    19    49    1
    53    20    50    1
    54    29    51    1
    55    32    52    1
