
     RDKit          3D

 52 55  0  0  0  0  0  0  0  0999 V2000
    6.6419    1.9672   -1.0648 C   0  0  0  0  0  0  0  0  0  0  0  0
    5.4761    1.0111   -0.9664 C   0  0  0  0  0  0  0  0  0  0  0  0
    3.9661    1.7315   -1.5062 S   0  0  0  0  0  6  0  0  0  0  0  0
    4.0816    2.0558   -2.9708 O   0  0  0  0  0  0  0  0  0  0  0  0
    3.5958    2.9503   -0.7264 O   0  0  0  0  0  0  0  0  0  0  0  0
    2.7188    0.5418   -1.3431 N   0  0  0  0  0  0  0  0  0  0  0  0
    2.5498    0.1328    0.0326 C   0  0  2  0  0  0  0  0  0  0  0  0
    2.6136   -1.3778    0.1272 C   0  0  0  0  0  0  0  0  0  0  0  0
    1.2533   -1.7333    0.6628 C   0  0  1  0  0  0  0  0  0  0  0  0
    1.2234   -2.9794    1.4652 C   0  0  0  0  0  0  0  0  0  0  0  0
    0.9481   -0.5767    1.4222 O   0  0  0  0  0  0  0  0  0  0  0  0
    1.0982    0.3784    0.3892 C   0  0  1  0  0  0  0  0  0  0  0  0
    0.7992    1.7585    0.8166 C   0  0  0  0  0  0  0  0  0  0  0  0
    0.2613   -0.1499   -0.7301 C   0  0  2  0  0  0  0  0  0  0  0  0
   -1.1305    0.3195   -0.6528 C   0  0  0  0  0  0  0  0  0  0  0  0
   -1.4772    1.4644   -1.0794 O   0  0  0  0  0  0  0  0  0  0  0  0
   -1.9586   -0.6695   -0.0566 N   0  0  0  0  0  0  0  0  0  0  0  0
   -3.3828   -0.5056    0.1015 C   0  0  0  0  0  0  0  0  0  0  0  0
   -4.2799   -0.9151   -0.8700 C   0  0  0  0  0  0  0  0  0  0  0  0
   -5.6497   -0.7237   -0.6549 C   0  0  0  0  0  0  0  0  0  0  0  0
   -6.1231   -0.1398    0.4964 C   0  0  0  0  0  0  0  0  0  0  0  0
   -7.5084    0.0765    0.7550 C   0  0  0  0  0  0  0  0  0  0  0  0
   -8.6218    0.2698    0.9694 N   0  0  0  0  0  0  0  0  0  0  0  0
   -5.2267    0.2680    1.4644 C   0  0  0  0  0  0  0  0  0  0  0  0
   -5.6714    0.9054    2.7321 C   0  0  0  0  0  0  0  0  0  0  0  0
   -4.5763    1.2092    3.5105 F   0  0  0  0  0  0  0  0  0  0  0  0
   -6.5445    0.1134    3.4341 F   0  0  0  0  0  0  0  0  0  0  0  0
   -6.2566    2.1153    2.3754 F   0  0  0  0  0  0  0  0  0  0  0  0
   -3.8995    0.0737    1.2377 C   0  0  0  0  0  0  0  0  0  0  0  0
   -1.1441   -1.7468    0.3099 C   0  0  0  0  0  0  0  0  0  0  0  0
   -1.4737   -2.6544    1.0961 O   0  0  0  0  0  0  0  0  0  0  0  0
    0.1627   -1.6367   -0.3808 C   0  0  2  0  0  0  0  0  0  0  0  0
    6.3184    2.9927   -0.7593 H   0  0  0  0  0  0  0  0  0  0  0  0
    7.0864    1.9865   -2.0711 H   0  0  0  0  0  0  0  0  0  0  0  0
    7.4115    1.6141   -0.3488 H   0  0  0  0  0  0  0  0  0  0  0  0
    5.7093    0.1668   -1.6613 H   0  0  0  0  0  0  0  0  0  0  0  0
    5.4405    0.5939    0.0399 H   0  0  0  0  0  0  0  0  0  0  0  0
    2.8214   -0.2378   -2.0011 H   0  0  0  0  0  0  0  0  0  0  0  0
    3.2408    0.6439    0.7286 H   0  0  0  0  0  0  0  0  0  0  0  0
    2.8137   -1.8350   -0.8637 H   0  0  0  0  0  0  0  0  0  0  0  0
    3.3571   -1.6921    0.8846 H   0  0  0  0  0  0  0  0  0  0  0  0
    0.8015   -2.7226    2.4787 H   0  0  0  0  0  0  0  0  0  0  0  0
    0.5859   -3.7518    0.9891 H   0  0  0  0  0  0  0  0  0  0  0  0
    2.2460   -3.4073    1.5664 H   0  0  0  0  0  0  0  0  0  0  0  0
    0.3742    2.3845    0.0139 H   0  0  0  0  0  0  0  0  0  0  0  0
    1.7005    2.2932    1.2102 H   0  0  0  0  0  0  0  0  0  0  0  0
    0.0453    1.7648    1.6507 H   0  0  0  0  0  0  0  0  0  0  0  0
    0.7190   -0.0053   -1.7263 H   0  0  0  0  0  0  0  0  0  0  0  0
   -3.9197   -1.3722   -1.7723 H   0  0  0  0  0  0  0  0  0  0  0  0
   -6.3432   -1.0454   -1.4168 H   0  0  0  0  0  0  0  0  0  0  0  0
   -3.1619    0.3862    1.9868 H   0  0  0  0  0  0  0  0  0  0  0  0
    0.2881   -2.2912   -1.2362 H   0  0  0  0  0  0  0  0  0  0  0  0
  1  2  1  0
  2  3  1  0
  3  4  2  0
  3  5  2  0
  3  6  1  0
  6  7  1  0
  7  8  1  0
  8  9  1  0
  9 10  1  1
  9 11  1  0
 11 12  1  0
 12 13  1  1
 12 14  1  0
 14 15  1  0
 15 16  2  0
 15 17  1  0
 17 18  1  0
 18 19  2  0
 19 20  1  0
 20 21  2  0
 21 22  1  0
 22 23  3  0
 21 24  1  0
 24 25  1  0
 25 26  1  0
 25 27  1  0
 25 28  1  0
 24 29  2  0
 17 30  1  0
 30 31  2  0
 30 32  1  0
 12  7  1  0
 32 14  1  0
 32  9  1  0
 29 18  1  0
  1 33  1  0
  1 34  1  0
  1 35  1  0
  2 36  1  0
  2 37  1  0
  6 38  1  0
  7 39  1  1
  8 40  1  0
  8 41  1  0
 10 42  1  0
 10 43  1  0
 10 44  1  0
 13 45  1  0
 13 46  1  0
 13 47  1  0
 14 48  1  6
 19 49  1  0
 20 50  1  0
 29 51  1  0
 32 52  1  6
M  END
$$$$
