@<TRIPOS>MOLECULE
*****
 57 59 0 0 0
SMALL
GASTEIGER

@<TRIPOS>ATOM
      1 C          -6.7788    0.2139   -1.6331 C.3     1  UNL1       -0.0473
      2 C          -6.0439    0.2324   -0.3040 C.3     1  UNL1        0.0108
      3 C          -6.8089   -0.6977    0.6212 C.3     1  UNL1       -0.0473
      4 C          -6.1371    1.6146    0.2670 C.3     1  UNL1       -0.0473
      5 N          -4.7057   -0.2078   -0.5404 N.3     1  UNL1       -0.3086
      6 C          -3.8978   -0.2329    0.6631 C.3     1  UNL1        0.0253
      7 C          -2.4949   -0.6991    0.3908 C.3     1  UNL1        0.0813
      8 O          -2.5282   -2.0022   -0.1432 O.3     1  UNL1       -0.3872
      9 C          -1.7991    0.2181   -0.5777 C.3     1  UNL1       -0.0069
     10 C          -0.6950    0.9796    0.0899 C.3     1  UNL1        0.0175
     11 N           0.2609    0.0395    0.6378 N.pl3   1  UNL1       -0.2994
     12 C           1.6535    0.2276    0.4101 C.ar    1  UNL1        0.2214
     13 N           2.5863   -0.6085    0.8897 N.ar    1  UNL1       -0.1790
     14 C           3.9042   -0.4591    0.6928 C.ar    1  UNL1        0.2254
     15 O           4.8195   -1.3687    1.2220 O.3     1  UNL1       -0.4378
     16 C           6.1638   -1.1958    1.0072 C.ar    1  UNL1        0.1331
     17 C           6.7601   -1.7622   -0.0920 C.ar    1  UNL1       -0.0191
     18 C           8.1210   -1.6122   -0.3484 C.ar    1  UNL1       -0.0556
     19 C           8.8774   -0.8707    0.5365 C.ar    1  UNL1       -0.0262
     20 C           8.3056   -0.2934    1.6439 C.ar    1  UNL1        0.1269
     21 F           9.0779    0.4199    2.4791 F       1  UNL1       -0.2054
     22 C           6.9417   -0.4624    1.8718 C.ar    1  UNL1        0.0160
     23 C           4.3155    0.6378   -0.0590 C.ar    1  UNL1        0.0305
     24 C           3.3801    1.5067   -0.5600 C.ar    1  UNL1        0.1522
     25 C           3.8505    2.6666   -1.3576 C.3     1  UNL1        0.4345
     26 F           3.5604    2.4143   -2.6917 F       1  UNL1       -0.1644
     27 F           5.1937    2.8555   -1.1925 F       1  UNL1       -0.1644
     28 F           3.1791    3.8270   -0.9901 F       1  UNL1       -0.1644
     29 N           2.0887    1.2729   -0.3096 N.ar    1  UNL1       -0.2101
     30 C          -0.2548   -1.0724    1.4083 C.3     1  UNL1        0.0175
     31 C          -1.7213   -0.7807    1.6747 C.3     1  UNL1       -0.0069
     32 H          -7.7631   -0.2900   -1.5650 H       1  UNL1        0.0247
     33 H          -6.1877   -0.3384   -2.4113 H       1  UNL1        0.0247
     34 H          -6.8675    1.2493   -2.0149 H       1  UNL1        0.0247
     35 H          -6.7779   -1.7432    0.2777 H       1  UNL1        0.0247
     36 H          -7.8638   -0.3730    0.6294 H       1  UNL1        0.0247
     37 H          -6.4257   -0.6339    1.6498 H       1  UNL1        0.0247
     38 H          -6.0909    1.6257    1.3711 H       1  UNL1        0.0247
     39 H          -5.4366    2.3358   -0.2009 H       1  UNL1        0.0247
     40 H          -7.1689    1.9956    0.0110 H       1  UNL1        0.0247
     41 H          -4.7493   -1.1353   -1.0144 H       1  UNL1        0.1225
     42 H          -3.8597    0.8107    1.0380 H       1  UNL1        0.0452
     43 H          -4.3200   -0.8612    1.4541 H       1  UNL1        0.0452
     44 H          -3.3351   -2.4329    0.2493 H       1  UNL1        0.2102
     45 H          -1.3612   -0.3809   -1.4038 H       1  UNL1        0.0308
     46 H          -2.5285    0.9043   -1.0562 H       1  UNL1        0.0308
     47 H          -1.0543    1.6364    0.8984 H       1  UNL1        0.0465
     48 H          -0.2376    1.6377   -0.6774 H       1  UNL1        0.0465
     49 H           6.2060   -2.3507   -0.8110 H       1  UNL1        0.0654
     50 H           8.5962   -2.0526   -1.2073 H       1  UNL1        0.0620
     51 H           9.9448   -0.7353    0.3630 H       1  UNL1        0.0646
     52 H           6.4684   -0.0166    2.7385 H       1  UNL1        0.0683
     53 H           5.3832    0.7643   -0.2221 H       1  UNL1        0.0692
     54 H           0.2934   -1.0795    2.3672 H       1  UNL1        0.0465
     55 H          -0.1125   -2.0400    0.9004 H       1  UNL1        0.0465
     56 H          -1.7696    0.2122    2.1684 H       1  UNL1        0.0308
     57 H          -2.1561   -1.5090    2.3900 H       1  UNL1        0.0308
@<TRIPOS>BOND
     1     1     2    1
     2     2     3    1
     3     2     4    1
     4     2     5    1
     5     5     6    1
     6     6     7    1
     7     7     8    1
     8     7     9    1
     9     9    10    1
    10    10    11    1
    11    11    12    1
    12    12    13   ar
    13    13    14   ar
    14    14    15    1
    15    15    16    1
    16    16    17   ar
    17    17    18   ar
    18    18    19   ar
    19    19    20   ar
    20    20    21    1
    21    20    22   ar
    22    14    23   ar
    23    23    24   ar
    24    24    25    1
    25    25    26    1
    26    25    27    1
    27    25    28    1
    28    24    29   ar
    29    11    30    1
    30    30    31    1
    31    31     7    1
    32    29    12   ar
    33    22    16   ar
    34     1    32    1
    35     1    33    1
    36     1    34    1
    37     3    35    1
    38     3    36    1
    39     3    37    1
    40     4    38    1
    41     4    39    1
    42     4    40    1
    43     5    41    1
    44     6    42    1
    45     6    43    1
    46     8    44    1
    47     9    45    1
    48     9    46    1
    49    10    47    1
    50    10    48    1
    51    17    49    1
    52    18    50    1
    53    19    51    1
    54    22    52    1
    55    23    53    1
    56    30    54    1
    57    30    55    1
    58    31    56    1
    59    31    57    1
