@<TRIPOS>MOLECULE
*****
 56 59 0 0 0
SMALL
GASTEIGER

@<TRIPOS>ATOM
      1 C          -3.8134   -1.6479    1.0799 C.3     1  UNL1       -0.0188
      2 C          -4.5392   -0.7934    0.0899 C.ar    1  UNL1        0.0825
      3 N          -4.9257   -1.1883   -1.1306 N.ar    1  UNL1       -0.1746
      4 N          -5.5489   -0.1763   -1.7537 N.ar    1  UNL1       -0.2695
      5 C          -6.1097   -0.2209   -3.0939 C.3     1  UNL1        0.0305
      6 C          -5.5808    0.8992   -0.9507 C.ar    1  UNL1        0.0584
      7 C          -6.1900    2.2151   -1.2921 C.3     1  UNL1       -0.0208
      8 C          -4.9461    0.5198    0.2151 C.ar    1  UNL1        0.0912
      9 N          -4.7374    1.3258    1.3577 N.pl3   1  UNL1       -0.2127
     10 S          -3.3438    2.3061    1.5862 S.O2    1  UNL1        0.0752
     11 O          -3.2019    3.3302    0.4870 O.2     1  UNL1       -0.1499
     12 O          -3.4742    3.0610    2.8680 O.2     1  UNL1       -0.1499
     13 C          -1.8751    1.3908    1.6418 C.ar    1  UNL1        0.1449
     14 C          -1.3267    0.8710    2.7956 C.ar    1  UNL1        0.0695
     15 CL         -2.1582    1.1442    4.3212 Cl      1  UNL1       -0.0814
     16 C          -0.1496    0.1490    2.7681 C.ar    1  UNL1       -0.0337
     17 C           0.5164   -0.0748    1.5775 C.ar    1  UNL1       -0.0149
     18 C           1.7597   -0.8340    1.5190 C.ar    1  UNL1       -0.0131
     19 C           1.9965   -1.8580    2.3997 C.ar    1  UNL1       -0.0357
     20 C           3.1830   -2.5695    2.3298 C.ar    1  UNL1        0.0303
     21 N           4.1015   -2.2570    1.3998 N.ar    1  UNL1       -0.2403
     22 C           3.9159   -1.2470    0.4992 C.ar    1  UNL1        0.1219
     23 N           4.9425   -0.9971   -0.4387 N.pl3   1  UNL1       -0.3128
     24 C           6.1834   -1.7832   -0.4418 C.3     1  UNL1        0.0261
     25 C           7.3472   -0.8209   -0.4118 C.3     1  UNL1        0.0117
     26 N           6.8682    0.5279   -0.1127 N.3     1  UNL1       -0.3130
     27 C           5.9960    0.9936   -1.1882 C.3     1  UNL1        0.0117
     28 C           4.8592    0.0270   -1.4476 C.3     1  UNL1        0.0261
     29 C           2.7430   -0.5520    0.5768 C.ar    1  UNL1       -0.0140
     30 C          -0.0213    0.4399    0.4135 C.ar    1  UNL1       -0.0337
     31 C          -1.2022    1.1611    0.4611 C.ar    1  UNL1        0.0695
     32 CL         -1.8218    1.7824   -1.0596 Cl      1  UNL1       -0.0814
     33 H          -4.4868   -2.5081    1.3664 H       1  UNL1        0.0294
     34 H          -2.8756   -2.0505    0.6726 H       1  UNL1        0.0294
     35 H          -3.6351   -1.0958    2.0257 H       1  UNL1        0.0294
     36 H          -5.4352    0.2228   -3.8443 H       1  UNL1        0.0473
     37 H          -7.0750    0.3551   -3.1424 H       1  UNL1        0.0473
     38 H          -6.3801   -1.2718   -3.3825 H       1  UNL1        0.0473
     39 H          -7.2340    2.0473   -1.6901 H       1  UNL1        0.0293
     40 H          -5.6240    2.6488   -2.1205 H       1  UNL1        0.0293
     41 H          -6.3087    2.8585   -0.4160 H       1  UNL1        0.0293
     42 H          -5.4981    1.2994    2.0880 H       1  UNL1        0.1738
     43 H           0.2536   -0.2423    3.6749 H       1  UNL1        0.0639
     44 H           1.2291   -2.0815    3.1385 H       1  UNL1        0.0639
     45 H           3.3820   -3.3734    3.0124 H       1  UNL1        0.0830
     46 H           6.2055   -2.5421    0.3375 H       1  UNL1        0.0477
     47 H           6.1974   -2.2880   -1.4402 H       1  UNL1        0.0477
     48 H           8.0711   -1.0929    0.3861 H       1  UNL1        0.0439
     49 H           7.9096   -0.7895   -1.3633 H       1  UNL1        0.0439
     50 H           7.6984    1.1726   -0.1333 H       1  UNL1        0.1220
     51 H           6.5617    1.1018   -2.1324 H       1  UNL1        0.0439
     52 H           5.6417    1.9921   -0.9085 H       1  UNL1        0.0439
     53 H           5.0161   -0.5096   -2.4297 H       1  UNL1        0.0477
     54 H           3.8899    0.5186   -1.5493 H       1  UNL1        0.0477
     55 H           2.5447    0.2428   -0.0955 H       1  UNL1        0.0658
     56 H           0.5055    0.2620   -0.5236 H       1  UNL1        0.0639
@<TRIPOS>BOND
     1     1     2    1
     2     2     3   ar
     3     3     4   ar
     4     4     5    1
     5     4     6   ar
     6     6     7    1
     7     6     8   ar
     8     8     9    1
     9     9    10    1
    10    10    11    2
    11    10    12    2
    12    10    13    1
    13    13    14   ar
    14    14    15    1
    15    14    16   ar
    16    16    17   ar
    17    17    18    1
    18    18    19   ar
    19    19    20   ar
    20    20    21   ar
    21    21    22   ar
    22    22    23    1
    23    23    24    1
    24    24    25    1
    25    25    26    1
    26    26    27    1
    27    27    28    1
    28    22    29   ar
    29    17    30   ar
    30    30    31   ar
    31    31    32    1
    32     8     2   ar
    33    31    13   ar
    34    29    18   ar
    35    28    23    1
    36     1    33    1
    37     1    34    1
    38     1    35    1
    39     5    36    1
    40     5    37    1
    41     5    38    1
    42     7    39    1
    43     7    40    1
    44     7    41    1
    45     9    42    1
    46    16    43    1
    47    19    44    1
    48    20    45    1
    49    24    46    1
    50    24    47    1
    51    25    48    1
    52    25    49    1
    53    26    50    1
    54    27    51    1
    55    27    52    1
    56    28    53    1
    57    28    54    1
    58    29    55    1
    59    30    56    1
