@<TRIPOS>MOLECULE
*****
 50 53 0 0 0
SMALL
GASTEIGER

@<TRIPOS>ATOM
      1 N           8.6090   -0.5062    1.7114 N.3     1  UNL1       -0.2035
      2 S           8.0481    0.6360    0.5226 S.O2    1  UNL1        0.0559
      3 O           8.4930    1.9865    1.0220 O.2     1  UNL1       -0.1533
      4 O           8.6814    0.2947   -0.7942 O.2     1  UNL1       -0.1533
      5 C           6.3080    0.6328    0.4228 C.ar    1  UNL1        0.1051
      6 C           5.5686    1.4764    1.2192 C.ar    1  UNL1       -0.0336
      7 C           4.1963    1.4898    1.1564 C.ar    1  UNL1       -0.0386
      8 C           3.4847    0.6712    0.3043 C.ar    1  UNL1        0.0337
      9 N           2.0681    0.7079    0.2623 N.pl3   1  UNL1       -0.2835
     10 C           1.1720   -0.0469   -0.5370 C.ar    1  UNL1        0.2246
     11 N          -0.1524    0.1454   -0.4198 N.ar    1  UNL1       -0.1773
     12 C          -1.0524   -0.5331   -1.1435 C.ar    1  UNL1        0.2476
     13 O          -2.4007   -0.2845   -0.9718 O.3     1  UNL1       -0.4745
     14 C          -2.8912    0.6620   -0.0595 C.3     1  UNL1        0.0941
     15 C          -4.4047    0.7346   -0.0726 C.3     1  UNL1       -0.0067
     16 C          -4.9364   -0.6295    0.2996 C.3     1  UNL1       -0.0471
     17 C          -6.4257   -0.5352    0.5502 C.3     1  UNL1       -0.0527
     18 C          -6.6381    0.2964    1.7922 C.3     1  UNL1       -0.0530
     19 C          -5.4213    1.1324    2.1253 C.3     1  UNL1       -0.0527
     20 C          -4.8864    1.7989    0.8746 C.3     1  UNL1       -0.0471
     21 C          -0.6456   -1.4670   -2.0479 C.ar    1  UNL1        0.1690
     22 N          -1.2522   -2.3056   -2.9143 N.ar    1  UNL1       -0.2289
     23 C          -0.3176   -3.0201   -3.5716 C.ar    1  UNL1        0.0958
     24 N           0.8749   -2.6420   -3.1298 N.ar    1  UNL1       -0.3291
     25 C           0.6937   -1.6913   -2.1962 C.ar    1  UNL1        0.1665
     26 N           1.5235   -0.9727   -1.4366 N.ar    1  UNL1       -0.1946
     27 C           4.2727   -0.1515   -0.4687 C.ar    1  UNL1       -0.0386
     28 C           5.6492   -0.2059   -0.4464 C.ar    1  UNL1       -0.0336
     29 H           8.3505   -1.4498    1.3197 H       1  UNL1        0.1442
     30 H           7.9894   -0.3757    2.5429 H       1  UNL1        0.1442
     31 H           6.0752    2.1401    1.9062 H       1  UNL1        0.0638
     32 H           3.6748    2.1894    1.8220 H       1  UNL1        0.0637
     33 H           1.6226    1.4056    0.9304 H       1  UNL1        0.1550
     34 H          -2.5684    0.4926    0.9746 H       1  UNL1        0.0700
     35 H          -2.5290    1.6681   -0.3781 H       1  UNL1        0.0700
     36 H          -4.7848    0.9849   -1.0841 H       1  UNL1        0.0334
     37 H          -4.4744   -1.0253    1.2217 H       1  UNL1        0.0269
     38 H          -4.6845   -1.3411   -0.5132 H       1  UNL1        0.0269
     39 H          -6.7955   -1.5612    0.7404 H       1  UNL1        0.0265
     40 H          -6.9697   -0.1283   -0.3250 H       1  UNL1        0.0265
     41 H          -7.5361    0.9303    1.6722 H       1  UNL1        0.0265
     42 H          -6.7893   -0.3813    2.6595 H       1  UNL1        0.0265
     43 H          -4.6089    0.5184    2.5485 H       1  UNL1        0.0265
     44 H          -5.6971    1.9277    2.8456 H       1  UNL1        0.0265
     45 H          -5.7218    2.3704    0.4260 H       1  UNL1        0.0269
     46 H          -4.0340    2.4405    1.1170 H       1  UNL1        0.0269
     47 H          -0.5766   -3.7469   -4.3074 H       1  UNL1        0.1027
     48 H           1.7906   -3.0300   -3.4641 H       1  UNL1        0.1682
     49 H           3.8257   -0.8307   -1.1677 H       1  UNL1        0.0637
     50 H           6.2227   -0.8712   -1.0750 H       1  UNL1        0.0638
@<TRIPOS>BOND
     1     1     2    1
     2     2     3    2
     3     2     4    2
     4     2     5    1
     5     5     6   ar
     6     6     7   ar
     7     7     8   ar
     8     8     9    1
     9     9    10    1
    10    10    11   ar
    11    11    12   ar
    12    12    13    1
    13    13    14    1
    14    14    15    1
    15    15    16    1
    16    16    17    1
    17    17    18    1
    18    18    19    1
    19    19    20    1
    20    12    21   ar
    21    21    22   ar
    22    22    23   ar
    23    23    24   ar
    24    24    25   ar
    25    25    26   ar
    26     8    27   ar
    27    27    28   ar
    28    28     5   ar
    29    26    10   ar
    30    20    15    1
    31    25    21   ar
    32     1    29    1
    33     1    30    1
    34     6    31    1
    35     7    32    1
    36     9    33    1
    37    14    34    1
    38    14    35    1
    39    15    36    1
    40    16    37    1
    41    16    38    1
    42    17    39    1
    43    17    40    1
    44    18    41    1
    45    18    42    1
    46    19    43    1
    47    19    44    1
    48    20    45    1
    49    20    46    1
    50    23    47    1
    51    24    48    1
    52    27    49    1
    53    28    50    1
