
     RDKit          3D

 50 53  0  0  0  0  0  0  0  0999 V2000
    8.6090   -0.5062    1.7114 N   0  0  0  0  0  0  0  0  0  0  0  0
    8.0481    0.6360    0.5226 S   0  0  0  0  0  0  0  0  0  0  0  0
    8.4930    1.9865    1.0220 O   0  0  0  0  0  0  0  0  0  0  0  0
    8.6814    0.2947   -0.7942 O   0  0  0  0  0  0  0  0  0  0  0  0
    6.3080    0.6328    0.4228 C   0  0  0  0  0  0  0  0  0  0  0  0
    5.5686    1.4764    1.2192 C   0  0  0  0  0  0  0  0  0  0  0  0
    4.1963    1.4898    1.1564 C   0  0  0  0  0  0  0  0  0  0  0  0
    3.4847    0.6712    0.3043 C   0  0  0  0  0  0  0  0  0  0  0  0
    2.0681    0.7079    0.2623 N   0  0  0  0  0  0  0  0  0  0  0  0
    1.1720   -0.0469   -0.5370 C   0  0  0  0  0  0  0  0  0  0  0  0
   -0.1524    0.1454   -0.4198 N   0  0  0  0  0  0  0  0  0  0  0  0
   -1.0524   -0.5331   -1.1435 C   0  0  0  0  0  0  0  0  0  0  0  0
   -2.4007   -0.2845   -0.9718 O   0  0  0  0  0  0  0  0  0  0  0  0
   -2.8912    0.6620   -0.0595 C   0  0  0  0  0  0  0  0  0  0  0  0
   -4.4047    0.7346   -0.0726 C   0  0  0  0  0  0  0  0  0  0  0  0
   -4.9364   -0.6295    0.2996 C   0  0  0  0  0  0  0  0  0  0  0  0
   -6.4257   -0.5352    0.5502 C   0  0  0  0  0  0  0  0  0  0  0  0
   -6.6381    0.2964    1.7922 C   0  0  0  0  0  0  0  0  0  0  0  0
   -5.4213    1.1324    2.1253 C   0  0  0  0  0  0  0  0  0  0  0  0
   -4.8864    1.7989    0.8746 C   0  0  0  0  0  0  0  0  0  0  0  0
   -0.6456   -1.4670   -2.0479 C   0  0  0  0  0  0  0  0  0  0  0  0
   -1.2522   -2.3056   -2.9143 N   0  0  0  0  0  0  0  0  0  0  0  0
   -0.3176   -3.0201   -3.5716 C   0  0  0  0  0  0  0  0  0  0  0  0
    0.8749   -2.6420   -3.1298 N   0  0  0  0  0  0  0  0  0  0  0  0
    0.6937   -1.6913   -2.1962 C   0  0  0  0  0  0  0  0  0  0  0  0
    1.5235   -0.9727   -1.4366 N   0  0  0  0  0  0  0  0  0  0  0  0
    4.2727   -0.1515   -0.4687 C   0  0  0  0  0  0  0  0  0  0  0  0
    5.6492   -0.2059   -0.4464 C   0  0  0  0  0  0  0  0  0  0  0  0
    8.3505   -1.4498    1.3197 H   0  0  0  0  0  0  0  0  0  0  0  0
    7.9894   -0.3757    2.5429 H   0  0  0  0  0  0  0  0  0  0  0  0
    6.0752    2.1401    1.9062 H   0  0  0  0  0  0  0  0  0  0  0  0
    3.6748    2.1894    1.8220 H   0  0  0  0  0  0  0  0  0  0  0  0
    1.6226    1.4056    0.9304 H   0  0  0  0  0  0  0  0  0  0  0  0
   -2.5684    0.4926    0.9746 H   0  0  0  0  0  0  0  0  0  0  0  0
   -2.5290    1.6681   -0.3781 H   0  0  0  0  0  0  0  0  0  0  0  0
   -4.7848    0.9849   -1.0841 H   0  0  0  0  0  0  0  0  0  0  0  0
   -4.4744   -1.0253    1.2217 H   0  0  0  0  0  0  0  0  0  0  0  0
   -4.6845   -1.3411   -0.5132 H   0  0  0  0  0  0  0  0  0  0  0  0
   -6.7955   -1.5612    0.7404 H   0  0  0  0  0  0  0  0  0  0  0  0
   -6.9697   -0.1283   -0.3250 H   0  0  0  0  0  0  0  0  0  0  0  0
   -7.5361    0.9303    1.6722 H   0  0  0  0  0  0  0  0  0  0  0  0
   -6.7893   -0.3813    2.6595 H   0  0  0  0  0  0  0  0  0  0  0  0
   -4.6089    0.5184    2.5485 H   0  0  0  0  0  0  0  0  0  0  0  0
   -5.6971    1.9277    2.8456 H   0  0  0  0  0  0  0  0  0  0  0  0
   -5.7218    2.3704    0.4260 H   0  0  0  0  0  0  0  0  0  0  0  0
   -4.0340    2.4405    1.1170 H   0  0  0  0  0  0  0  0  0  0  0  0
   -0.5766   -3.7469   -4.3074 H   0  0  0  0  0  0  0  0  0  0  0  0
    1.7906   -3.0300   -3.4641 H   0  0  0  0  0  0  0  0  0  0  0  0
    3.8257   -0.8307   -1.1677 H   0  0  0  0  0  0  0  0  0  0  0  0
    6.2227   -0.8712   -1.0750 H   0  0  0  0  0  0  0  0  0  0  0  0
  1  2  1  0
  2  3  2  0
  2  4  2  0
  2  5  1  0
  5  6  2  0
  6  7  1  0
  7  8  2  0
  8  9  1  0
  9 10  1  0
 10 11  2  0
 11 12  1  0
 12 13  1  0
 13 14  1  0
 14 15  1  0
 15 16  1  0
 16 17  1  0
 17 18  1  0
 18 19  1  0
 19 20  1  0
 12 21  2  0
 21 22  1  0
 22 23  2  0
 23 24  1  0
 24 25  1  0
 25 26  2  0
  8 27  1  0
 27 28  2  0
 28  5  1  0
 26 10  1  0
 20 15  1  0
 25 21  1  0
  1 29  1  0
  1 30  1  0
  6 31  1  0
  7 32  1  0
  9 33  1  0
 14 34  1  0
 14 35  1  0
 15 36  1  0
 16 37  1  0
 16 38  1  0
 17 39  1  0
 17 40  1  0
 18 41  1  0
 18 42  1  0
 19 43  1  0
 19 44  1  0
 20 45  1  0
 20 46  1  0
 23 47  1  0
 24 48  1  0
 27 49  1  0
 28 50  1  0
M  END
$$$$
