@<TRIPOS>MOLECULE
*****
 45 48 0 0 0
SMALL
GASTEIGER

@<TRIPOS>ATOM
      1 O           1.2615   -0.8326   -0.6258 O.2     1  UNL1       -0.2748
      2 C           1.5838    0.3329   -0.2856 C.2     1  UNL1        0.2271
      3 C           0.5681    1.4104   -0.3766 C.3     1  UNL1        0.0826
      4 C          -0.7168    0.8873   -0.8813 C.ar    1  UNL1        0.1206
      5 N          -1.6747    0.4100   -0.0470 N.ar    1  UNL1       -0.2186
      6 C          -2.8492   -0.0700   -0.4847 C.ar    1  UNL1        0.1285
      7 N          -3.8116   -0.5538    0.4060 N.pl3   1  UNL1       -0.3106
      8 C          -3.5084   -0.5389    1.8485 C.3     1  UNL1        0.0370
      9 C          -4.6520    0.2073    2.5027 C.3     1  UNL1        0.0634
     10 O          -5.7972   -0.5615    2.3100 O.3     1  UNL1       -0.3767
     11 C          -6.2041   -0.6055    1.0015 C.3     1  UNL1        0.0634
     12 C          -5.0944   -1.0758    0.0518 C.3     1  UNL1        0.0370
     13 C          -3.0394   -0.0546   -1.8478 C.ar    1  UNL1        0.0427
     14 C          -2.0833    0.4242   -2.7121 C.ar    1  UNL1        0.2533
     15 O          -2.2730    0.4297   -3.9351 O.2     1  UNL1       -0.2677
     16 N          -0.9276    0.8921   -2.2222 N.ar    1  UNL1       -0.3104
     17 N           2.8904    0.6130    0.1756 N.am    1  UNL1       -0.2705
     18 C           3.4518    1.8622    0.6068 C.3     1  UNL1        0.0238
     19 C           4.8814    1.7558    0.1879 C.3     1  UNL1       -0.0097
     20 C           5.1598    0.2899    0.3174 C.ar    1  UNL1       -0.0245
     21 C           6.3199   -0.4172    0.4323 C.ar    1  UNL1       -0.0568
     22 C           6.2590   -1.7855    0.5358 C.ar    1  UNL1       -0.0614
     23 C           5.0705   -2.4670    0.5276 C.ar    1  UNL1       -0.0600
     24 C           3.9206   -1.7168    0.4098 C.ar    1  UNL1       -0.0400
     25 C           3.9504   -0.3465    0.3046 C.ar    1  UNL1        0.0395
     26 H           0.9477    2.2199   -1.0219 H       1  UNL1        0.0438
     27 H           0.4265    1.8050    0.6673 H       1  UNL1        0.0438
     28 H          -2.5279   -0.0607    2.0343 H       1  UNL1        0.0487
     29 H          -3.5261   -1.5997    2.1958 H       1  UNL1        0.0487
     30 H          -4.4621    0.2577    3.5806 H       1  UNL1        0.0575
     31 H          -4.7363    1.2222    2.0832 H       1  UNL1        0.0575
     32 H          -6.9990   -1.3900    0.9276 H       1  UNL1        0.0575
     33 H          -6.6326    0.3343    0.6176 H       1  UNL1        0.0575
     34 H          -5.0153   -2.2005    0.1231 H       1  UNL1        0.0487
     35 H          -5.4504   -0.8602   -0.9508 H       1  UNL1        0.0487
     36 H          -3.9557   -0.4247   -2.2529 H       1  UNL1        0.0706
     37 H          -0.1713    1.2661   -2.8414 H       1  UNL1        0.1700
     38 H           3.4381    1.8785    1.7291 H       1  UNL1        0.0472
     39 H           2.9293    2.7427    0.2100 H       1  UNL1        0.0472
     40 H           5.0348    2.0366   -0.8901 H       1  UNL1        0.0329
     41 H           5.5607    2.3635    0.8047 H       1  UNL1        0.0329
     42 H           7.2853    0.1018    0.4417 H       1  UNL1        0.0621
     43 H           7.1737   -2.3552    0.6274 H       1  UNL1        0.0618
     44 H           5.0227   -3.5563    0.6100 H       1  UNL1        0.0618
     45 H           2.9723   -2.2703    0.4040 H       1  UNL1        0.0636
@<TRIPOS>BOND
     1     1     2    2
     2     2     3    1
     3     3     4    1
     4     4     5   ar
     5     5     6   ar
     6     6     7    1
     7     7     8    1
     8     8     9    1
     9     9    10    1
    10    10    11    1
    11    11    12    1
    12     6    13   ar
    13    13    14   ar
    14    14    15    2
    15    14    16   ar
    16     2    17   am
    17    17    18    1
    18    18    19    1
    19    19    20    1
    20    20    21   ar
    21    21    22   ar
    22    22    23   ar
    23    23    24   ar
    24    24    25   ar
    25    16     4   ar
    26    25    17    1
    27    12     7    1
    28    25    20   ar
    29     3    26    1
    30     3    27    1
    31     8    28    1
    32     8    29    1
    33     9    30    1
    34     9    31    1
    35    11    32    1
    36    11    33    1
    37    12    34    1
    38    12    35    1
    39    13    36    1
    40    16    37    1
    41    18    38    1
    42    18    39    1
    43    19    40    1
    44    19    41    1
    45    21    42    1
    46    22    43    1
    47    23    44    1
    48    24    45    1
