@<TRIPOS>MOLECULE
*****
 48 50 0 0 0
SMALL
GASTEIGER

@<TRIPOS>ATOM
      1 C           0.7917    1.3048    0.2278 C.3     1  UNL1        0.1350
      2 N          -0.0231    1.7627    1.2847 N.3     1  UNL1       -0.1599
      3 C           0.0932    1.1827    2.5537 C.3     1  UNL1        0.0257
      4 C           0.3372   -0.2951    2.6232 C.3     1  UNL1       -0.0127
      5 C           1.2603   -0.7928    1.6009 C.ar    1  UNL1       -0.0372
      6 C           1.9003   -1.9842    1.7597 C.ar    1  UNL1       -0.0130
      7 C           2.7728   -2.4428    0.7811 C.ar    1  UNL1        0.1587
      8 O           3.3631   -3.6804    1.0699 O.3     1  UNL1       -0.5033
      9 C           2.9821   -1.6671   -0.3620 C.ar    1  UNL1        0.1616
     10 O           3.8672   -2.2432   -1.2411 O.3     1  UNL1       -0.4914
     11 C           4.2246   -1.6288   -2.4648 C.3     1  UNL1        0.0790
     12 C           2.3211   -0.4791   -0.4825 C.ar    1  UNL1       -0.0109
     13 C           1.4491   -0.0001    0.4744 C.ar    1  UNL1       -0.0129
     14 S          -1.5591    2.2884    0.7926 S.O2    1  UNL1        0.0618
     15 O          -2.3045    2.7050    2.0539 O.2     1  UNL1       -0.1528
     16 O          -1.5085    3.5355   -0.0511 O.2     1  UNL1       -0.1528
     17 C          -2.4963    1.0383    0.0528 C.ar    1  UNL1        0.1057
     18 C          -2.3797    0.8953   -1.2975 C.ar    1  UNL1       -0.0319
     19 C          -3.0975   -0.0839   -1.9705 C.ar    1  UNL1       -0.0181
     20 C          -3.9408   -0.9305   -1.2931 C.ar    1  UNL1        0.1202
     21 O          -4.7171   -1.9457   -1.8097 O.3     1  UNL1       -0.4951
     22 C          -4.7105   -2.2248   -3.1963 C.3     1  UNL1        0.0788
     23 C          -4.0424   -0.7659    0.0768 C.ar    1  UNL1       -0.0181
     24 C          -3.3305    0.2115    0.7745 C.ar    1  UNL1       -0.0319
     25 C           1.9047    2.3044    0.0416 C.2     1  UNL1        0.2588
     26 O           2.8390    2.2596   -0.8000 O.2     1  UNL1       -0.2716
     27 N           2.0010    3.4748    0.8657 N.am    1  UNL1       -0.1959
     28 O           3.0372    4.3336    0.6366 O.3     1  UNL1       -0.2951
     29 H           0.2992    1.2110   -0.7646 H       1  UNL1        0.0626
     30 H           0.9338    1.6826    3.1014 H       1  UNL1        0.0447
     31 H          -0.8133    1.3836    3.1604 H       1  UNL1        0.0447
     32 H          -0.6502   -0.8088    2.5805 H       1  UNL1        0.0326
     33 H           0.7719   -0.5177    3.6211 H       1  UNL1        0.0326
     34 H           1.6988   -2.5403    2.6647 H       1  UNL1        0.0658
     35 H           4.2241   -3.9524    0.6305 H       1  UNL1        0.2923
     36 H           3.3598   -1.8190   -3.1501 H       1  UNL1        0.0660
     37 H           4.4185   -0.5669   -2.2806 H       1  UNL1        0.0660
     38 H           5.1302   -2.1778   -2.8237 H       1  UNL1        0.0660
     39 H           2.5760    0.0213   -1.4190 H       1  UNL1        0.0659
     40 H          -1.7622    1.4778   -1.9745 H       1  UNL1        0.0638
     41 H          -3.0464   -0.2464   -3.0449 H       1  UNL1        0.0655
     42 H          -4.6357   -1.2890   -3.7907 H       1  UNL1        0.0660
     43 H          -5.6543   -2.7607   -3.4444 H       1  UNL1        0.0660
     44 H          -3.8448   -2.8728   -3.4167 H       1  UNL1        0.0660
     45 H          -4.6825   -1.3837    0.7107 H       1  UNL1        0.0655
     46 H          -3.4199    0.3270    1.8388 H       1  UNL1        0.0638
     47 H           1.2879    3.6529    1.6195 H       1  UNL1        0.1823
     48 H           2.7742    5.0471   -0.0152 H       1  UNL1        0.2414
@<TRIPOS>BOND
     1     1     2    1
     2     2     3    1
     3     3     4    1
     4     4     5    1
     5     5     6   ar
     6     6     7   ar
     7     7     8    1
     8     7     9   ar
     9     9    10    1
    10    10    11    1
    11     9    12   ar
    12    12    13   ar
    13     2    14    1
    14    14    15    2
    15    14    16    2
    16    14    17    1
    17    17    18   ar
    18    18    19   ar
    19    19    20   ar
    20    20    21    1
    21    21    22    1
    22    20    23   ar
    23    23    24   ar
    24     1    25    1
    25    25    26    2
    26    25    27   am
    27    27    28    1
    28    13     1    1
    29    24    17   ar
    30    13     5   ar
    31     1    29    1
    32     3    30    1
    33     3    31    1
    34     4    32    1
    35     4    33    1
    36     6    34    1
    37     8    35    1
    38    11    36    1
    39    11    37    1
    40    11    38    1
    41    12    39    1
    42    18    40    1
    43    19    41    1
    44    22    42    1
    45    22    43    1
    46    22    44    1
    47    23    45    1
    48    24    46    1
    49    27    47    1
    50    28    48    1
