
     RDKit          3D

 44 47  0  0  0  0  0  0  0  0999 V2000
   -2.1185   -2.3061    0.0220 N   0  0  0  0  0  0  0  0  0  0  0  0
   -1.2137   -1.2024   -0.2010 C   0  0  0  0  0  0  0  0  0  0  0  0
   -1.7717   -0.1579   -1.1082 C   0  0  0  0  0  0  0  0  0  0  0  0
   -2.9935    0.5118   -0.7148 C   0  0  0  0  0  0  0  0  0  0  0  0
   -3.1065    1.6770    0.0128 C   0  0  0  0  0  0  0  0  0  0  0  0
   -4.3190    2.2524    0.3525 C   0  0  0  0  0  0  0  0  0  0  0  0
   -5.4958    1.6537   -0.0425 C   0  0  0  0  0  0  0  0  0  0  0  0
   -7.0129    2.4056    0.4025 Cl  0  0  0  0  0  0  0  0  0  0  0  0
   -5.4217    0.4854   -0.7729 C   0  0  0  0  0  0  0  0  0  0  0  0
   -4.2024   -0.0743   -1.1026 C   0  0  0  0  0  0  0  0  0  0  0  0
   -0.0189   -1.7955   -0.9269 C   0  0  0  0  0  0  0  0  0  0  0  0
    1.0961   -2.1448    0.0679 C   0  0  0  0  0  0  0  0  0  0  0  0
    1.6558   -0.8169    0.4111 N   0  0  0  0  0  0  0  0  0  0  0  0
    3.0315   -0.6264    0.2667 C   0  0  0  0  0  0  0  0  0  0  0  0
    3.8332   -1.6748   -0.0721 N   0  0  0  0  0  0  0  0  0  0  0  0
    5.1616   -1.5425   -0.2113 C   0  0  0  0  0  0  0  0  0  0  0  0
    5.7894   -0.3720   -0.0271 N   0  0  0  0  0  0  0  0  0  0  0  0
    5.0606    0.6902    0.3053 C   0  0  0  0  0  0  0  0  0  0  0  0
    5.3996    1.9678    0.5467 N   0  0  0  0  0  0  0  0  0  0  0  0
    4.3217    2.6985    0.8459 C   0  0  0  0  0  0  0  0  0  0  0  0
    3.2520    1.8357    0.7894 C   0  0  0  0  0  0  0  0  0  0  0  0
    3.6777    0.5663    0.4533 C   0  0  0  0  0  0  0  0  0  0  0  0
    0.6646    0.1107    0.8687 C   0  0  0  0  0  0  0  0  0  0  0  0
   -0.6938   -0.6017    1.0631 C   0  0  0  0  0  0  0  0  0  0  0  0
   -2.4552   -2.6207   -0.9071 H   0  0  0  0  0  0  0  0  0  0  0  0
   -2.8420   -2.1288    0.7224 H   0  0  0  0  0  0  0  0  0  0  0  0
   -0.9423    0.5803   -1.3006 H   0  0  0  0  0  0  0  0  0  0  0  0
   -1.9328   -0.6437   -2.1097 H   0  0  0  0  0  0  0  0  0  0  0  0
   -2.1836    2.1427    0.3165 H   0  0  0  0  0  0  0  0  0  0  0  0
   -4.3608    3.1793    0.9322 H   0  0  0  0  0  0  0  0  0  0  0  0
   -6.3692    0.0420   -1.0668 H   0  0  0  0  0  0  0  0  0  0  0  0
   -4.1936   -1.0036   -1.6844 H   0  0  0  0  0  0  0  0  0  0  0  0
   -0.3456   -2.6911   -1.4542 H   0  0  0  0  0  0  0  0  0  0  0  0
    0.4087   -1.0800   -1.6609 H   0  0  0  0  0  0  0  0  0  0  0  0
    1.8453   -2.6873   -0.5018 H   0  0  0  0  0  0  0  0  0  0  0  0
    0.7022   -2.6641    0.9372 H   0  0  0  0  0  0  0  0  0  0  0  0
    5.7895   -2.3907   -0.4827 H   0  0  0  0  0  0  0  0  0  0  0  0
    6.3795    2.3327    0.5038 H   0  0  0  0  0  0  0  0  0  0  0  0
    4.3004    3.7367    1.0797 H   0  0  0  0  0  0  0  0  0  0  0  0
    2.2557    2.1298    0.9779 H   0  0  0  0  0  0  0  0  0  0  0  0
    0.9061    0.4807    1.8819 H   0  0  0  0  0  0  0  0  0  0  0  0
    0.4268    0.9303    0.1695 H   0  0  0  0  0  0  0  0  0  0  0  0
   -0.6099   -1.3922    1.8359 H   0  0  0  0  0  0  0  0  0  0  0  0
   -1.3548    0.2077    1.4314 H   0  0  0  0  0  0  0  0  0  0  0  0
  1  2  1  0
  2  3  1  0
  3  4  1  0
  4  5  2  0
  5  6  1  0
  6  7  2  0
  7  8  1  0
  7  9  1  0
  9 10  2  0
  2 11  1  0
 11 12  1  0
 12 13  1  0
 13 14  1  0
 14 15  2  0
 15 16  1  0
 16 17  2  0
 17 18  1  0
 18 19  1  0
 19 20  1  0
 20 21  2  0
 21 22  1  0
 13 23  1  0
 23 24  1  0
 24  2  1  0
 10  4  1  0
 22 14  1  0
 22 18  2  0
  1 25  1  0
  1 26  1  0
  3 27  1  0
  3 28  1  0
  5 29  1  0
  6 30  1  0
  9 31  1  0
 10 32  1  0
 11 33  1  0
 11 34  1  0
 12 35  1  0
 12 36  1  0
 16 37  1  0
 19 38  1  0
 20 39  1  0
 21 40  1  0
 23 41  1  0
 23 42  1  0
 24 43  1  0
 24 44  1  0
M  END
$$$$
