@<TRIPOS>MOLECULE
*****
 44 47 0 0 0
SMALL
GASTEIGER

@<TRIPOS>ATOM
      1 N          -2.1185   -2.3061    0.0220 N.3     1  UNL1       -0.3243
      2 C          -1.2137   -1.2024   -0.2010 C.3     1  UNL1        0.0233
      3 C          -1.7717   -0.1579   -1.1082 C.3     1  UNL1       -0.0094
      4 C          -2.9935    0.5118   -0.7148 C.ar    1  UNL1       -0.0455
      5 C          -3.1065    1.6770    0.0128 C.ar    1  UNL1       -0.0571
      6 C          -4.3190    2.2524    0.3525 C.ar    1  UNL1       -0.0431
      7 C          -5.4958    1.6537   -0.0425 C.ar    1  UNL1        0.0410
      8 CL         -7.0129    2.4056    0.4025 Cl      1  UNL1       -0.0835
      9 C          -5.4217    0.4854   -0.7729 C.ar    1  UNL1       -0.0431
     10 C          -4.2024   -0.0743   -1.1026 C.ar    1  UNL1       -0.0571
     11 C          -0.0189   -1.7955   -0.9269 C.3     1  UNL1       -0.0187
     12 C           1.0961   -2.1448    0.0679 C.3     1  UNL1        0.0152
     13 N           1.6558   -0.8169    0.4111 N.pl3   1  UNL1       -0.3145
     14 C           3.0315   -0.6264    0.2667 C.ar    1  UNL1        0.1337
     15 N           3.8332   -1.6748   -0.0721 N.ar    1  UNL1       -0.2200
     16 C           5.1616   -1.5425   -0.2113 C.ar    1  UNL1        0.1204
     17 N           5.7894   -0.3720   -0.0271 N.ar    1  UNL1       -0.2178
     18 C           5.0606    0.6902    0.3053 C.ar    1  UNL1        0.1432
     19 N           5.3996    1.9678    0.5467 N.ar    1  UNL1       -0.3457
     20 C           4.3217    2.6985    0.8459 C.ar    1  UNL1        0.0042
     21 C           3.2520    1.8357    0.7894 C.ar    1  UNL1       -0.0318
     22 C           3.6777    0.5663    0.4533 C.ar    1  UNL1        0.0585
     23 C           0.6646    0.1107    0.8687 C.3     1  UNL1        0.0152
     24 C          -0.6938   -0.6017    1.0631 C.3     1  UNL1       -0.0187
     25 H          -2.4552   -2.6207   -0.9071 H       1  UNL1        0.1187
     26 H          -2.8420   -2.1288    0.7224 H       1  UNL1        0.1187
     27 H          -0.9423    0.5803   -1.3006 H       1  UNL1        0.0331
     28 H          -1.9328   -0.6437   -2.1097 H       1  UNL1        0.0331
     29 H          -2.1836    2.1427    0.3165 H       1  UNL1        0.0621
     30 H          -4.3608    3.1793    0.9322 H       1  UNL1        0.0632
     31 H          -6.3692    0.0420   -1.0668 H       1  UNL1        0.0632
     32 H          -4.1936   -1.0036   -1.6844 H       1  UNL1        0.0621
     33 H          -0.3456   -2.6911   -1.4542 H       1  UNL1        0.0298
     34 H           0.4087   -1.0800   -1.6609 H       1  UNL1        0.0298
     35 H           1.8453   -2.6873   -0.5018 H       1  UNL1        0.0465
     36 H           0.7022   -2.6641    0.9372 H       1  UNL1        0.0465
     37 H           5.7895   -2.3907   -0.4827 H       1  UNL1        0.1048
     38 H           6.3795    2.3327    0.5038 H       1  UNL1        0.1668
     39 H           4.3004    3.7367    1.0797 H       1  UNL1        0.0807
     40 H           2.2557    2.1298    0.9779 H       1  UNL1        0.0640
     41 H           0.9061    0.4807    1.8819 H       1  UNL1        0.0465
     42 H           0.4268    0.9303    0.1695 H       1  UNL1        0.0465
     43 H          -0.6099   -1.3922    1.8359 H       1  UNL1        0.0298
     44 H          -1.3548    0.2077    1.4314 H       1  UNL1        0.0298
@<TRIPOS>BOND
     1     1     2    1
     2     2     3    1
     3     3     4    1
     4     4     5   ar
     5     5     6   ar
     6     6     7   ar
     7     7     8    1
     8     7     9   ar
     9     9    10   ar
    10     2    11    1
    11    11    12    1
    12    12    13    1
    13    13    14    1
    14    14    15   ar
    15    15    16   ar
    16    16    17   ar
    17    17    18   ar
    18    18    19   ar
    19    19    20   ar
    20    20    21   ar
    21    21    22   ar
    22    13    23    1
    23    23    24    1
    24    24     2    1
    25    10     4   ar
    26    22    14   ar
    27    22    18   ar
    28     1    25    1
    29     1    26    1
    30     3    27    1
    31     3    28    1
    32     5    29    1
    33     6    30    1
    34     9    31    1
    35    10    32    1
    36    11    33    1
    37    11    34    1
    38    12    35    1
    39    12    36    1
    40    16    37    1
    41    19    38    1
    42    20    39    1
    43    21    40    1
    44    23    41    1
    45    23    42    1
    46    24    43    1
    47    24    44    1
