@<TRIPOS>MOLECULE
*****
 52 54 0 0 0
SMALL
GASTEIGER

@<TRIPOS>ATOM
      1 C          -2.7133   -2.0530   -1.3161 C.3     1  UNL1        0.0044
      2 N          -1.4025   -2.6735   -1.4610 N.am    1  UNL1       -0.2902
      3 C          -1.3176   -3.9743   -2.0980 C.3     1  UNL1        0.0044
      4 C          -0.2499   -1.9975   -0.9800 C.2     1  UNL1        0.3246
      5 O           0.8415   -2.5979   -1.1423 O.2     1  UNL1       -0.2506
      6 N          -0.3024   -0.7223   -0.3515 N.am    1  UNL1       -0.1657
      7 N          -1.5130   -0.0431   -0.1649 N.2     1  UNL1       -0.1793
      8 C          -1.3765    0.9482    0.6171 C.2     1  UNL1        0.0720
      9 C          -2.4562    1.8479    1.0047 C.ar    1  UNL1        0.0357
     10 C          -3.4420    1.4825    1.8979 C.ar    1  UNL1       -0.0148
     11 C          -4.4110    2.4214    2.1861 C.ar    1  UNL1        0.1242
     12 F          -5.4091    2.1202    3.0593 F       1  UNL1       -0.2055
     13 C          -4.4214    3.6760    1.6236 C.ar    1  UNL1       -0.0237
     14 C          -3.4252    4.0242    0.7304 C.ar    1  UNL1       -0.0231
     15 C          -2.4376    3.1113    0.4167 C.ar    1  UNL1        0.1324
     16 F          -1.4586    3.4526   -0.4606 F       1  UNL1       -0.2048
     17 C           0.0221    1.0623    1.0772 C.3     1  UNL1        0.0194
     18 C           0.7809    0.0732    0.1803 C.3     1  UNL1        0.0919
     19 C           1.5004    0.8837   -0.8360 C.3     1  UNL1       -0.0238
     20 C           2.1456    0.1274   -1.9384 C.3     1  UNL1       -0.0383
     21 C           2.8213    1.1598   -2.8538 C.3     1  UNL1       -0.0068
     22 N           3.7883    1.8651   -2.0439 N.3     1  UNL1       -0.3300
     23 C           1.6640   -0.6988    1.0843 C.ar    1  UNL1       -0.0216
     24 C           1.1788   -1.8707    1.6730 C.ar    1  UNL1       -0.0565
     25 C           1.9643   -2.6287    2.5239 C.ar    1  UNL1       -0.0614
     26 C           3.2419   -2.2581    2.8186 C.ar    1  UNL1       -0.0617
     27 C           3.7284   -1.1004    2.2402 C.ar    1  UNL1       -0.0614
     28 C           2.9388   -0.3466    1.3903 C.ar    1  UNL1       -0.0565
     29 H          -2.9593   -1.9275   -0.2447 H       1  UNL1        0.0429
     30 H          -3.4913   -2.7089   -1.7392 H       1  UNL1        0.0429
     31 H          -2.7292   -1.1212   -1.8992 H       1  UNL1        0.0429
     32 H          -1.1522   -4.7876   -1.3817 H       1  UNL1        0.0429
     33 H          -0.4885   -3.9728   -2.8477 H       1  UNL1        0.0429
     34 H          -2.2454   -4.1696   -2.6768 H       1  UNL1        0.0429
     35 H          -3.4331    0.4975    2.3391 H       1  UNL1        0.0653
     36 H          -5.2142    4.3801    1.8884 H       1  UNL1        0.0647
     37 H          -3.3871    4.9860    0.2652 H       1  UNL1        0.0647
     38 H           0.1434    0.8394    2.1374 H       1  UNL1        0.0354
     39 H           0.3575    2.1016    0.9128 H       1  UNL1        0.0354
     40 H           0.7269    1.5576   -1.3110 H       1  UNL1        0.0290
     41 H           2.1912    1.5659   -0.3230 H       1  UNL1        0.0290
     42 H           2.9120   -0.5828   -1.6406 H       1  UNL1        0.0278
     43 H           1.3349   -0.3079   -2.5731 H       1  UNL1        0.0278
     44 H           3.2884    0.6566   -3.7309 H       1  UNL1        0.0422
     45 H           2.0815    1.8885   -3.2463 H       1  UNL1        0.0422
     46 H           3.3983    2.7574   -1.6685 H       1  UNL1        0.1182
     47 H           4.6841    1.9761   -2.5480 H       1  UNL1        0.1182
     48 H           0.1783   -2.2402    1.4972 H       1  UNL1        0.0621
     49 H           1.5669   -3.5339    2.9689 H       1  UNL1        0.0618
     50 H           3.8408   -2.8487    3.4760 H       1  UNL1        0.0618
     51 H           4.7440   -0.8317    2.4921 H       1  UNL1        0.0618
     52 H           3.3721    0.5355    0.9765 H       1  UNL1        0.0621
@<TRIPOS>BOND
     1     1     2    1
     2     2     3    1
     3     2     4   am
     4     4     5    2
     5     4     6   am
     6     6     7    1
     7     7     8    2
     8     8     9    1
     9     9    10   ar
    10    10    11   ar
    11    11    12    1
    12    11    13   ar
    13    13    14   ar
    14    14    15   ar
    15    15    16    1
    16     8    17    1
    17    17    18    1
    18    18    19    1
    19    19    20    1
    20    20    21    1
    21    21    22    1
    22    18    23    1
    23    23    24   ar
    24    24    25   ar
    25    25    26   ar
    26    26    27   ar
    27    27    28   ar
    28    18     6    1
    29    28    23   ar
    30    15     9   ar
    31     1    29    1
    32     1    30    1
    33     1    31    1
    34     3    32    1
    35     3    33    1
    36     3    34    1
    37    10    35    1
    38    13    36    1
    39    14    37    1
    40    17    38    1
    41    17    39    1
    42    19    40    1
    43    19    41    1
    44    20    42    1
    45    20    43    1
    46    21    44    1
    47    21    45    1
    48    22    46    1
    49    22    47    1
    50    24    48    1
    51    25    49    1
    52    26    50    1
    53    27    51    1
    54    28    52    1
