
     RDKit          3D

 52 54  0  0  0  0  0  0  0  0999 V2000
   -2.7133   -2.0530   -1.3161 C   0  0  0  0  0  0  0  0  0  0  0  0
   -1.4025   -2.6735   -1.4610 N   0  0  0  0  0  0  0  0  0  0  0  0
   -1.3176   -3.9743   -2.0980 C   0  0  0  0  0  0  0  0  0  0  0  0
   -0.2499   -1.9975   -0.9800 C   0  0  0  0  0  0  0  0  0  0  0  0
    0.8415   -2.5979   -1.1423 O   0  0  0  0  0  0  0  0  0  0  0  0
   -0.3024   -0.7223   -0.3515 N   0  0  0  0  0  0  0  0  0  0  0  0
   -1.5130   -0.0431   -0.1649 N   0  0  0  0  0  0  0  0  0  0  0  0
   -1.3765    0.9482    0.6171 C   0  0  0  0  0  0  0  0  0  0  0  0
   -2.4562    1.8479    1.0047 C   0  0  0  0  0  0  0  0  0  0  0  0
   -3.4420    1.4825    1.8979 C   0  0  0  0  0  0  0  0  0  0  0  0
   -4.4110    2.4214    2.1861 C   0  0  0  0  0  0  0  0  0  0  0  0
   -5.4091    2.1202    3.0593 F   0  0  0  0  0  0  0  0  0  0  0  0
   -4.4214    3.6760    1.6236 C   0  0  0  0  0  0  0  0  0  0  0  0
   -3.4252    4.0242    0.7304 C   0  0  0  0  0  0  0  0  0  0  0  0
   -2.4376    3.1113    0.4167 C   0  0  0  0  0  0  0  0  0  0  0  0
   -1.4586    3.4526   -0.4606 F   0  0  0  0  0  0  0  0  0  0  0  0
    0.0221    1.0623    1.0772 C   0  0  0  0  0  0  0  0  0  0  0  0
    0.7809    0.0732    0.1803 C   0  0  2  0  0  0  0  0  0  0  0  0
    1.5004    0.8837   -0.8360 C   0  0  0  0  0  0  0  0  0  0  0  0
    2.1456    0.1274   -1.9384 C   0  0  0  0  0  0  0  0  0  0  0  0
    2.8213    1.1598   -2.8538 C   0  0  0  0  0  0  0  0  0  0  0  0
    3.7883    1.8651   -2.0439 N   0  0  0  0  0  0  0  0  0  0  0  0
    1.6640   -0.6988    1.0843 C   0  0  0  0  0  0  0  0  0  0  0  0
    1.1788   -1.8707    1.6730 C   0  0  0  0  0  0  0  0  0  0  0  0
    1.9643   -2.6287    2.5239 C   0  0  0  0  0  0  0  0  0  0  0  0
    3.2419   -2.2581    2.8186 C   0  0  0  0  0  0  0  0  0  0  0  0
    3.7284   -1.1004    2.2402 C   0  0  0  0  0  0  0  0  0  0  0  0
    2.9388   -0.3466    1.3903 C   0  0  0  0  0  0  0  0  0  0  0  0
   -2.9593   -1.9275   -0.2447 H   0  0  0  0  0  0  0  0  0  0  0  0
   -3.4913   -2.7089   -1.7392 H   0  0  0  0  0  0  0  0  0  0  0  0
   -2.7292   -1.1212   -1.8992 H   0  0  0  0  0  0  0  0  0  0  0  0
   -1.1522   -4.7876   -1.3817 H   0  0  0  0  0  0  0  0  0  0  0  0
   -0.4885   -3.9728   -2.8477 H   0  0  0  0  0  0  0  0  0  0  0  0
   -2.2454   -4.1696   -2.6768 H   0  0  0  0  0  0  0  0  0  0  0  0
   -3.4331    0.4975    2.3391 H   0  0  0  0  0  0  0  0  0  0  0  0
   -5.2142    4.3801    1.8884 H   0  0  0  0  0  0  0  0  0  0  0  0
   -3.3871    4.9860    0.2652 H   0  0  0  0  0  0  0  0  0  0  0  0
    0.1434    0.8394    2.1374 H   0  0  0  0  0  0  0  0  0  0  0  0
    0.3575    2.1016    0.9128 H   0  0  0  0  0  0  0  0  0  0  0  0
    0.7269    1.5576   -1.3110 H   0  0  0  0  0  0  0  0  0  0  0  0
    2.1912    1.5659   -0.3230 H   0  0  0  0  0  0  0  0  0  0  0  0
    2.9120   -0.5828   -1.6406 H   0  0  0  0  0  0  0  0  0  0  0  0
    1.3349   -0.3079   -2.5731 H   0  0  0  0  0  0  0  0  0  0  0  0
    3.2884    0.6566   -3.7309 H   0  0  0  0  0  0  0  0  0  0  0  0
    2.0815    1.8885   -3.2463 H   0  0  0  0  0  0  0  0  0  0  0  0
    3.3983    2.7574   -1.6685 H   0  0  0  0  0  0  0  0  0  0  0  0
    4.6841    1.9761   -2.5480 H   0  0  0  0  0  0  0  0  0  0  0  0
    0.1783   -2.2402    1.4972 H   0  0  0  0  0  0  0  0  0  0  0  0
    1.5669   -3.5339    2.9689 H   0  0  0  0  0  0  0  0  0  0  0  0
    3.8408   -2.8487    3.4760 H   0  0  0  0  0  0  0  0  0  0  0  0
    4.7440   -0.8317    2.4921 H   0  0  0  0  0  0  0  0  0  0  0  0
    3.3721    0.5355    0.9765 H   0  0  0  0  0  0  0  0  0  0  0  0
  1  2  1  0
  2  3  1  0
  2  4  1  0
  4  5  2  0
  4  6  1  0
  6  7  1  0
  7  8  2  0
  8  9  1  0
  9 10  2  0
 10 11  1  0
 11 12  1  0
 11 13  2  0
 13 14  1  0
 14 15  2  0
 15 16  1  0
  8 17  1  0
 17 18  1  0
 18 19  1  6
 19 20  1  0
 20 21  1  0
 21 22  1  0
 18 23  1  0
 23 24  2  0
 24 25  1  0
 25 26  2  0
 26 27  1  0
 27 28  2  0
 18  6  1  0
 28 23  1  0
 15  9  1  0
  1 29  1  0
  1 30  1  0
  1 31  1  0
  3 32  1  0
  3 33  1  0
  3 34  1  0
 10 35  1  0
 13 36  1  0
 14 37  1  0
 17 38  1  0
 17 39  1  0
 19 40  1  0
 19 41  1  0
 20 42  1  0
 20 43  1  0
 21 44  1  0
 21 45  1  0
 22 46  1  0
 22 47  1  0
 24 48  1  0
 25 49  1  0
 26 50  1  0
 27 51  1  0
 28 52  1  0
M  END
$$$$
