@<TRIPOS>MOLECULE
*****
 77 80 0 0 0
SMALL
GASTEIGER

@<TRIPOS>ATOM
      1 C           6.6638    1.0882   -1.9860 C.3     1  UNL1       -0.0554
      2 C           6.3588    0.8507   -0.5559 C.3     1  UNL1        0.0182
      3 C           5.0161    0.3647   -0.1747 C.3     1  UNL1       -0.0183
      4 C           3.8216    1.1678   -0.4759 C.3     1  UNL1        0.0821
      5 C           3.6746    1.3423   -1.9862 C.3     1  UNL1       -0.0396
      6 C           2.5713    0.5348    0.0909 C.3     1  UNL1        0.1053
      7 S           2.2111   -1.0709   -0.4952 S.O2    1  UNL1        0.0339
      8 O           3.2812   -2.0491   -0.0240 O.2     1  UNL1       -0.1580
      9 O           2.0736   -1.1674   -1.9751 O.2     1  UNL1       -0.1580
     10 N           0.7300   -1.6382    0.1918 N.3     1  UNL1       -0.1810
     11 C          -0.2942   -1.8089   -0.7574 C.3     1  UNL1        0.0204
     12 C          -1.6932   -1.5010   -0.4272 C.3     1  UNL1       -0.0357
     13 C          -1.9101   -0.7394    0.8271 C.3     1  UNL1       -0.0383
     14 C          -3.0572    0.2581    0.6681 C.3     1  UNL1       -0.0461
     15 C          -4.2883   -0.5115    0.3293 C.3     1  UNL1       -0.0272
     16 C          -5.4899    0.3025    0.1042 C.ar    1  UNL1       -0.0439
     17 C          -5.4483    1.6240   -0.2881 C.ar    1  UNL1       -0.0578
     18 C          -6.6025    2.3449   -0.5056 C.ar    1  UNL1       -0.0498
     19 C          -7.8399    1.7373   -0.3285 C.ar    1  UNL1        0.0551
     20 C          -9.0966    2.4996   -0.5672 C.3     1  UNL1        0.4174
     21 F          -8.7857    3.7207   -1.1352 F       1  UNL1       -0.1659
     22 F          -9.8127    1.7917   -1.5226 F       1  UNL1       -0.1659
     23 F          -9.7798    2.7061    0.5907 F       1  UNL1       -0.1659
     24 C          -7.8915    0.4231    0.0629 C.ar    1  UNL1       -0.0464
     25 C          -6.7249   -0.2883    0.2772 C.ar    1  UNL1       -0.0406
     26 C          -6.8731   -1.7195    0.7027 C.3     1  UNL1       -0.0155
     27 C          -6.8442   -2.7868   -0.3284 C.3     1  UNL1       -0.0457
     28 C          -8.1262   -2.4418    0.4144 C.3     1  UNL1       -0.0457
     29 C          -0.6705   -0.0652    1.3293 C.3     1  UNL1       -0.0357
     30 C           0.4021   -1.1134    1.4552 C.3     1  UNL1        0.0204
     31 N           3.8861    2.5012    0.1254 N.am    1  UNL1       -0.1788
     32 O           3.7953    3.5742   -0.6765 O.3     1  UNL1       -0.2921
     33 C           4.0406    2.6964    1.5102 C.2     1  UNL1        0.2256
     34 O           4.1521    1.7860    2.3725 O.2     1  UNL1       -0.2772
     35 C           7.3371   -0.1946   -0.0746 C.ar    1  UNL1        0.1320
     36 N           8.3211    0.1098    0.7827 N.ar    1  UNL1       -0.2372
     37 C           9.2056   -0.7797    1.2345 C.ar    1  UNL1        0.0663
     38 C           9.1251   -2.0816    0.8146 C.ar    1  UNL1        0.1594
     39 F          10.0178   -3.0318    1.2565 F       1  UNL1       -0.2023
     40 C           8.1236   -2.4161   -0.0641 C.ar    1  UNL1        0.0663
     41 N           7.2721   -1.4786   -0.4772 N.ar    1  UNL1       -0.2372
     42 H           6.5417    0.1282   -2.5603 H       1  UNL1        0.0236
     43 H           7.7966    1.2794   -2.0317 H       1  UNL1        0.0236
     44 H           6.2376    1.9608   -2.4628 H       1  UNL1        0.0236
     45 H           6.6626    1.7816   -0.0056 H       1  UNL1        0.0377
     46 H           5.0829    0.1016    0.9302 H       1  UNL1        0.0294
     47 H           4.9493   -0.6829   -0.6345 H       1  UNL1        0.0294
     48 H           2.5846    1.2918   -2.2659 H       1  UNL1        0.0252
     49 H           4.2786    0.6381   -2.5369 H       1  UNL1        0.0252
     50 H           3.9753    2.3744   -2.2278 H       1  UNL1        0.0252
     51 H           1.7399    1.2317   -0.1594 H       1  UNL1        0.0538
     52 H           2.7318    0.4645    1.1936 H       1  UNL1        0.0538
     53 H          -0.0197   -1.1556   -1.6531 H       1  UNL1        0.0444
     54 H          -0.2189   -2.8478   -1.1934 H       1  UNL1        0.0444
     55 H          -2.2520   -1.0453   -1.3023 H       1  UNL1        0.0281
     56 H          -2.2310   -2.4950   -0.3102 H       1  UNL1        0.0281
     57 H          -2.2338   -1.4393    1.6296 H       1  UNL1        0.0302
     58 H          -3.1282    0.8289    1.6076 H       1  UNL1        0.0271
     59 H          -2.8198    0.9746   -0.1364 H       1  UNL1        0.0271
     60 H          -4.4763   -1.2306    1.1680 H       1  UNL1        0.0313
     61 H          -4.1148   -1.0858   -0.6046 H       1  UNL1        0.0313
     62 H          -4.5086    2.1328   -0.4362 H       1  UNL1        0.0620
     63 H          -6.6033    3.3850   -0.8135 H       1  UNL1        0.0623
     64 H          -8.8751   -0.0109    0.1893 H       1  UNL1        0.0626
     65 H          -6.3766   -1.9650    1.6658 H       1  UNL1        0.0349
     66 H          -6.3144   -3.7308   -0.0892 H       1  UNL1        0.0271
     67 H          -6.7604   -2.4651   -1.3949 H       1  UNL1        0.0271
     68 H          -8.9532   -2.0141   -0.1904 H       1  UNL1        0.0271
     69 H          -8.4987   -3.2106    1.1213 H       1  UNL1        0.0271
     70 H          -0.8653    0.4196    2.3138 H       1  UNL1        0.0281
     71 H          -0.4368    0.7500    0.6308 H       1  UNL1        0.0281
     72 H           1.3073   -0.7396    1.9768 H       1  UNL1        0.0444
     73 H          -0.0560   -1.9498    2.0547 H       1  UNL1        0.0444
     74 H           2.9167    3.9968   -0.4807 H       1  UNL1        0.2417
     75 H           4.0717    3.7014    1.9012 H       1  UNL1        0.1274
     76 H           9.9733   -0.4876    1.9156 H       1  UNL1        0.0860
     77 H           8.0414   -3.4255   -0.4060 H       1  UNL1        0.0860
@<TRIPOS>BOND
     1     1     2    1
     2     2     3    1
     3     3     4    1
     4     4     5    1
     5     4     6    1
     6     6     7    1
     7     7     8    2
     8     7     9    2
     9     7    10    1
    10    10    11    1
    11    11    12    1
    12    12    13    1
    13    13    14    1
    14    14    15    1
    15    15    16    1
    16    16    17   ar
    17    17    18   ar
    18    18    19   ar
    19    19    20    1
    20    20    21    1
    21    20    22    1
    22    20    23    1
    23    19    24   ar
    24    24    25   ar
    25    25    26    1
    26    26    27    1
    27    27    28    1
    28    13    29    1
    29    29    30    1
    30     4    31    1
    31    31    32    1
    32    31    33   am
    33    33    34    2
    34     2    35    1
    35    35    36   ar
    36    36    37   ar
    37    37    38   ar
    38    38    39    1
    39    38    40   ar
    40    40    41   ar
    41    30    10    1
    42    41    35   ar
    43    25    16   ar
    44    28    26    1
    45     1    42    1
    46     1    43    1
    47     1    44    1
    48     2    45    1
    49     3    46    1
    50     3    47    1
    51     5    48    1
    52     5    49    1
    53     5    50    1
    54     6    51    1
    55     6    52    1
    56    11    53    1
    57    11    54    1
    58    12    55    1
    59    12    56    1
    60    13    57    1
    61    14    58    1
    62    14    59    1
    63    15    60    1
    64    15    61    1
    65    17    62    1
    66    18    63    1
    67    24    64    1
    68    26    65    1
    69    27    66    1
    70    27    67    1
    71    28    68    1
    72    28    69    1
    73    29    70    1
    74    29    71    1
    75    30    72    1
    76    30    73    1
    77    32    74    1
    78    33    75    1
    79    37    76    1
    80    40    77    1
