
     RDKit          3D

 77 80  0  0  0  0  0  0  0  0999 V2000
    6.6638    1.0882   -1.9860 C   0  0  0  0  0  0  0  0  0  0  0  0
    6.3588    0.8507   -0.5559 C   0  0  1  0  0  0  0  0  0  0  0  0
    5.0161    0.3647   -0.1747 C   0  0  0  0  0  0  0  0  0  0  0  0
    3.8216    1.1678   -0.4759 C   0  0  1  0  0  0  0  0  0  0  0  0
    3.6746    1.3423   -1.9862 C   0  0  0  0  0  0  0  0  0  0  0  0
    2.5713    0.5348    0.0909 C   0  0  0  0  0  0  0  0  0  0  0  0
    2.2111   -1.0709   -0.4952 S   0  0  0  0  0  6  0  0  0  0  0  0
    3.2812   -2.0491   -0.0240 O   0  0  0  0  0  0  0  0  0  0  0  0
    2.0736   -1.1674   -1.9751 O   0  0  0  0  0  0  0  0  0  0  0  0
    0.7300   -1.6382    0.1918 N   0  0  0  0  0  0  0  0  0  0  0  0
   -0.2942   -1.8089   -0.7574 C   0  0  0  0  0  0  0  0  0  0  0  0
   -1.6932   -1.5010   -0.4272 C   0  0  0  0  0  0  0  0  0  0  0  0
   -1.9101   -0.7394    0.8271 C   0  0  0  0  0  0  0  0  0  0  0  0
   -3.0572    0.2581    0.6681 C   0  0  0  0  0  0  0  0  0  0  0  0
   -4.2883   -0.5115    0.3293 C   0  0  0  0  0  0  0  0  0  0  0  0
   -5.4899    0.3025    0.1042 C   0  0  0  0  0  0  0  0  0  0  0  0
   -5.4483    1.6240   -0.2881 C   0  0  0  0  0  0  0  0  0  0  0  0
   -6.6025    2.3449   -0.5056 C   0  0  0  0  0  0  0  0  0  0  0  0
   -7.8399    1.7373   -0.3285 C   0  0  0  0  0  0  0  0  0  0  0  0
   -9.0966    2.4996   -0.5672 C   0  0  0  0  0  0  0  0  0  0  0  0
   -8.7857    3.7207   -1.1352 F   0  0  0  0  0  0  0  0  0  0  0  0
   -9.8127    1.7917   -1.5226 F   0  0  0  0  0  0  0  0  0  0  0  0
   -9.7798    2.7061    0.5907 F   0  0  0  0  0  0  0  0  0  0  0  0
   -7.8915    0.4231    0.0629 C   0  0  0  0  0  0  0  0  0  0  0  0
   -6.7249   -0.2883    0.2772 C   0  0  0  0  0  0  0  0  0  0  0  0
   -6.8731   -1.7195    0.7027 C   0  0  0  0  0  0  0  0  0  0  0  0
   -6.8442   -2.7868   -0.3284 C   0  0  0  0  0  0  0  0  0  0  0  0
   -8.1262   -2.4418    0.4144 C   0  0  0  0  0  0  0  0  0  0  0  0
   -0.6705   -0.0652    1.3293 C   0  0  0  0  0  0  0  0  0  0  0  0
    0.4021   -1.1134    1.4552 C   0  0  0  0  0  0  0  0  0  0  0  0
    3.8861    2.5012    0.1254 N   0  0  0  0  0  0  0  0  0  0  0  0
    3.7953    3.5742   -0.6765 O   0  0  0  0  0  0  0  0  0  0  0  0
    4.0406    2.6964    1.5102 C   0  0  0  0  0  0  0  0  0  0  0  0
    4.1521    1.7860    2.3725 O   0  0  0  0  0  0  0  0  0  0  0  0
    7.3371   -0.1946   -0.0746 C   0  0  0  0  0  0  0  0  0  0  0  0
    8.3211    0.1098    0.7827 N   0  0  0  0  0  0  0  0  0  0  0  0
    9.2056   -0.7797    1.2345 C   0  0  0  0  0  0  0  0  0  0  0  0
    9.1251   -2.0816    0.8146 C   0  0  0  0  0  0  0  0  0  0  0  0
   10.0178   -3.0318    1.2565 F   0  0  0  0  0  0  0  0  0  0  0  0
    8.1236   -2.4161   -0.0641 C   0  0  0  0  0  0  0  0  0  0  0  0
    7.2721   -1.4786   -0.4772 N   0  0  0  0  0  0  0  0  0  0  0  0
    6.5417    0.1282   -2.5603 H   0  0  0  0  0  0  0  0  0  0  0  0
    7.7966    1.2794   -2.0317 H   0  0  0  0  0  0  0  0  0  0  0  0
    6.2376    1.9608   -2.4628 H   0  0  0  0  0  0  0  0  0  0  0  0
    6.6626    1.7816   -0.0056 H   0  0  0  0  0  0  0  0  0  0  0  0
    5.0829    0.1016    0.9302 H   0  0  0  0  0  0  0  0  0  0  0  0
    4.9493   -0.6829   -0.6345 H   0  0  0  0  0  0  0  0  0  0  0  0
    2.5846    1.2918   -2.2659 H   0  0  0  0  0  0  0  0  0  0  0  0
    4.2786    0.6381   -2.5369 H   0  0  0  0  0  0  0  0  0  0  0  0
    3.9753    2.3744   -2.2278 H   0  0  0  0  0  0  0  0  0  0  0  0
    1.7399    1.2317   -0.1594 H   0  0  0  0  0  0  0  0  0  0  0  0
    2.7318    0.4645    1.1936 H   0  0  0  0  0  0  0  0  0  0  0  0
   -0.0197   -1.1556   -1.6531 H   0  0  0  0  0  0  0  0  0  0  0  0
   -0.2189   -2.8478   -1.1934 H   0  0  0  0  0  0  0  0  0  0  0  0
   -2.2520   -1.0453   -1.3023 H   0  0  0  0  0  0  0  0  0  0  0  0
   -2.2310   -2.4950   -0.3102 H   0  0  0  0  0  0  0  0  0  0  0  0
   -2.2338   -1.4393    1.6296 H   0  0  0  0  0  0  0  0  0  0  0  0
   -3.1282    0.8289    1.6076 H   0  0  0  0  0  0  0  0  0  0  0  0
   -2.8198    0.9746   -0.1364 H   0  0  0  0  0  0  0  0  0  0  0  0
   -4.4763   -1.2306    1.1680 H   0  0  0  0  0  0  0  0  0  0  0  0
   -4.1148   -1.0858   -0.6046 H   0  0  0  0  0  0  0  0  0  0  0  0
   -4.5086    2.1328   -0.4362 H   0  0  0  0  0  0  0  0  0  0  0  0
   -6.6033    3.3850   -0.8135 H   0  0  0  0  0  0  0  0  0  0  0  0
   -8.8751   -0.0109    0.1893 H   0  0  0  0  0  0  0  0  0  0  0  0
   -6.3766   -1.9650    1.6658 H   0  0  0  0  0  0  0  0  0  0  0  0
   -6.3144   -3.7308   -0.0892 H   0  0  0  0  0  0  0  0  0  0  0  0
   -6.7604   -2.4651   -1.3949 H   0  0  0  0  0  0  0  0  0  0  0  0
   -8.9532   -2.0141   -0.1904 H   0  0  0  0  0  0  0  0  0  0  0  0
   -8.4987   -3.2106    1.1213 H   0  0  0  0  0  0  0  0  0  0  0  0
   -0.8653    0.4196    2.3138 H   0  0  0  0  0  0  0  0  0  0  0  0
   -0.4368    0.7500    0.6308 H   0  0  0  0  0  0  0  0  0  0  0  0
    1.3073   -0.7396    1.9768 H   0  0  0  0  0  0  0  0  0  0  0  0
   -0.0560   -1.9498    2.0547 H   0  0  0  0  0  0  0  0  0  0  0  0
    2.9167    3.9968   -0.4807 H   0  0  0  0  0  0  0  0  0  0  0  0
    4.0717    3.7014    1.9012 H   0  0  0  0  0  0  0  0  0  0  0  0
    9.9733   -0.4876    1.9156 H   0  0  0  0  0  0  0  0  0  0  0  0
    8.0414   -3.4255   -0.4060 H   0  0  0  0  0  0  0  0  0  0  0  0
  1  2  1  0
  2  3  1  0
  3  4  1  0
  4  5  1  0
  4  6  1  0
  6  7  1  0
  7  8  2  0
  7  9  2  0
  7 10  1  0
 10 11  1  0
 11 12  1  0
 12 13  1  0
 13 14  1  0
 14 15  1  0
 15 16  1  0
 16 17  2  0
 17 18  1  0
 18 19  2  0
 19 20  1  0
 20 21  1  0
 20 22  1  0
 20 23  1  0
 19 24  1  0
 24 25  2  0
 25 26  1  0
 26 27  1  0
 27 28  1  0
 13 29  1  0
 29 30  1  0
  4 31  1  1
 31 32  1  0
 31 33  1  0
 33 34  2  0
  2 35  1  0
 35 36  2  0
 36 37  1  0
 37 38  2  0
 38 39  1  0
 38 40  1  0
 40 41  2  0
 30 10  1  0
 41 35  1  0
 25 16  1  0
 28 26  1  0
  1 42  1  0
  1 43  1  0
  1 44  1  0
  2 45  1  1
  3 46  1  0
  3 47  1  0
  5 48  1  0
  5 49  1  0
  5 50  1  0
  6 51  1  0
  6 52  1  0
 11 53  1  0
 11 54  1  0
 12 55  1  0
 12 56  1  0
 13 57  1  0
 14 58  1  0
 14 59  1  0
 15 60  1  0
 15 61  1  0
 17 62  1  0
 18 63  1  0
 24 64  1  0
 26 65  1  0
 27 66  1  0
 27 67  1  0
 28 68  1  0
 28 69  1  0
 29 70  1  0
 29 71  1  0
 30 72  1  0
 30 73  1  0
 32 74  1  0
 33 75  1  0
 37 76  1  0
 40 77  1  0
M  END
$$$$
