@<TRIPOS>MOLECULE
*****
 44 47 0 0 0
SMALL
GASTEIGER

@<TRIPOS>ATOM
      1 C          -4.0417    0.7460   -1.3348 C.3     1  UNL1       -0.0442
      2 C          -2.8172    0.8234   -0.4492 C.3     1  UNL1        0.0502
      3 C          -1.8729    1.7763   -1.1393 C.3     1  UNL1       -0.0065
      4 C          -0.7020    2.0018   -0.2326 C.ar    1  UNL1       -0.0326
      5 C          -0.4697    3.2948    0.1958 C.ar    1  UNL1       -0.0123
      6 C           0.5751    3.5221    1.0783 C.ar    1  UNL1        0.1665
      7 C           1.4096    2.5111    1.5617 C.ar    1  UNL1        0.1669
      8 O           2.3526    3.0456    2.4203 O.3     1  UNL1       -0.4526
      9 C           2.2708    4.4490    2.3164 C.3     1  UNL1        0.2332
     10 O           1.0395    4.6952    1.6696 O.3     1  UNL1       -0.4526
     11 C           1.2072    1.2144    1.1571 C.ar    1  UNL1       -0.0066
     12 C           0.1437    1.0360    0.2642 C.ar    1  UNL1        0.0094
     13 C           0.0728   -0.3950   -0.1078 C.2     1  UNL1        0.0967
     14 N          -1.0391   -1.0327   -0.3048 N.2     1  UNL1       -0.1763
     15 N          -2.3355   -0.4898   -0.2079 N.am    1  UNL1       -0.1897
     16 C          -3.3311   -1.4560    0.2002 C.2     1  UNL1        0.2319
     17 C          -2.9646   -2.8618    0.4680 C.3     1  UNL1        0.0140
     18 O          -4.5308   -1.1231    0.3366 O.2     1  UNL1       -0.2742
     19 C           1.2965   -1.1602   -0.2597 C.ar    1  UNL1        0.0026
     20 C           1.0871   -2.5201   -0.4122 C.ar    1  UNL1       -0.0508
     21 C           2.0798   -3.4543   -0.6464 C.ar    1  UNL1       -0.0404
     22 C           3.3827   -3.0531   -0.7428 C.ar    1  UNL1        0.0246
     23 N           4.4879   -3.9135   -0.9792 N.pl3   1  UNL1       -0.3580
     24 C           3.6455   -1.7092   -0.5997 C.ar    1  UNL1       -0.0404
     25 C           2.6139   -0.8348   -0.3698 C.ar    1  UNL1       -0.0508
     26 H          -4.0207    1.4963   -2.1596 H       1  UNL1        0.0248
     27 H          -4.9894    0.8664   -0.7677 H       1  UNL1        0.0248
     28 H          -4.0635   -0.2676   -1.7821 H       1  UNL1        0.0248
     29 H          -3.1856    1.3009    0.5068 H       1  UNL1        0.0521
     30 H          -2.3930    2.6950   -1.3772 H       1  UNL1        0.0332
     31 H          -1.5063    1.2838   -2.0606 H       1  UNL1        0.0332
     32 H          -1.1179    4.0482   -0.1844 H       1  UNL1        0.0658
     33 H           3.1243    4.8730    1.7461 H       1  UNL1        0.1166
     34 H           2.3054    4.9130    3.3355 H       1  UNL1        0.1166
     35 H           1.7635    0.3548    1.5031 H       1  UNL1        0.0662
     36 H          -3.8551   -3.5088    0.4348 H       1  UNL1        0.0323
     37 H          -2.2792   -3.2690   -0.3299 H       1  UNL1        0.0323
     38 H          -2.4275   -2.9694    1.4423 H       1  UNL1        0.0323
     39 H           0.1042   -3.0047   -0.3627 H       1  UNL1        0.0625
     40 H           1.9121   -4.5153   -0.7649 H       1  UNL1        0.0636
     41 H           4.9710   -4.1341   -0.0803 H       1  UNL1        0.1423
     42 H           4.5968   -4.1530   -1.9994 H       1  UNL1        0.1423
     43 H           4.6485   -1.3239   -0.6642 H       1  UNL1        0.0636
     44 H           2.8524    0.2021   -0.3177 H       1  UNL1        0.0625
@<TRIPOS>BOND
     1     1     2    1
     2     2     3    1
     3     3     4    1
     4     4     5   ar
     5     5     6   ar
     6     6     7   ar
     7     7     8    1
     8     8     9    1
     9     9    10    1
    10     7    11   ar
    11    11    12   ar
    12    12    13    1
    13    13    14    2
    14    14    15    1
    15    15    16   am
    16    16    17    1
    17    16    18    2
    18    13    19    1
    19    19    20   ar
    20    20    21   ar
    21    21    22   ar
    22    22    23    1
    23    22    24   ar
    24    24    25   ar
    25    15     2    1
    26    25    19   ar
    27    12     4   ar
    28    10     6    1
    29     1    26    1
    30     1    27    1
    31     1    28    1
    32     2    29    1
    33     3    30    1
    34     3    31    1
    35     5    32    1
    36     9    33    1
    37     9    34    1
    38    11    35    1
    39    17    36    1
    40    17    37    1
    41    17    38    1
    42    20    39    1
    43    21    40    1
    44    23    41    1
    45    23    42    1
    46    24    43    1
    47    25    44    1
