@<TRIPOS>MOLECULE
*****
 32 33 0 0 0
SMALL
GASTEIGER

@<TRIPOS>ATOM
      1 C          -2.2821   -2.9608    1.4582 C.3     1  UNL1        0.0790
      2 O          -1.3928   -2.0082    0.9255 O.3     1  UNL1       -0.4915
      3 C          -1.8901   -0.8464    0.3956 C.ar    1  UNL1        0.1615
      4 C          -0.9393    0.0406   -0.1096 C.ar    1  UNL1        0.1627
      5 O           0.4176   -0.2566   -0.0671 O.3     1  UNL1       -0.4822
      6 C           1.3033    0.7082   -0.6054 C.3     1  UNL1        0.1315
      7 C           2.7143    0.2354   -0.4812 C.ar    1  UNL1        0.0784
      8 N           3.7403    0.9831   -0.9244 N.ar    1  UNL1       -0.2565
      9 C           5.0316    0.5992   -0.8346 C.ar    1  UNL1        0.0280
     10 C           5.3132   -0.6213   -0.2593 C.ar    1  UNL1       -0.0436
     11 C           4.3138   -1.4667    0.2296 C.ar    1  UNL1       -0.0585
     12 C           3.0176   -0.9872    0.0935 C.ar    1  UNL1       -0.0370
     13 C          -1.3363    1.2574   -0.6740 C.ar    1  UNL1       -0.0134
     14 C          -2.6777    1.6114   -0.7455 C.ar    1  UNL1       -0.0468
     15 C          -3.1070    2.9031   -1.3439 C.3     1  UNL1       -0.0396
     16 C          -3.6053    0.7329   -0.2461 C.ar    1  UNL1       -0.0552
     17 C          -3.2138   -0.4677    0.3107 C.ar    1  UNL1       -0.0161
     18 H          -1.8188   -3.9754    1.4940 H       1  UNL1        0.0660
     19 H          -2.4930   -2.6862    2.5204 H       1  UNL1        0.0660
     20 H          -3.2271   -3.0692    0.9076 H       1  UNL1        0.0660
     21 H           1.1470    1.6662   -0.1008 H       1  UNL1        0.0763
     22 H           1.0379    0.8460   -1.6757 H       1  UNL1        0.0763
     23 H           5.8098    1.2524   -1.2128 H       1  UNL1        0.0829
     24 H           6.3519   -0.9740   -0.1657 H       1  UNL1        0.0633
     25 H           4.5030   -2.4277    0.6850 H       1  UNL1        0.0619
     26 H           2.2062   -1.6027    0.4558 H       1  UNL1        0.0637
     27 H          -0.6326    1.9714   -1.0760 H       1  UNL1        0.0658
     28 H          -2.4304    3.1990   -2.1839 H       1  UNL1        0.0278
     29 H          -3.1221    3.7139   -0.5983 H       1  UNL1        0.0278
     30 H          -4.1431    2.8360   -1.7359 H       1  UNL1        0.0278
     31 H          -4.6605    0.9605   -0.2775 H       1  UNL1        0.0621
     32 H          -3.9357   -1.1667    0.7068 H       1  UNL1        0.0655
@<TRIPOS>BOND
     1     1     2    1
     2     2     3    1
     3     3     4   ar
     4     4     5    1
     5     5     6    1
     6     6     7    1
     7     7     8   ar
     8     8     9   ar
     9     9    10   ar
    10    10    11   ar
    11    11    12   ar
    12     4    13   ar
    13    13    14   ar
    14    14    15    1
    15    14    16   ar
    16    16    17   ar
    17    17     3   ar
    18    12     7   ar
    19     1    18    1
    20     1    19    1
    21     1    20    1
    22     6    21    1
    23     6    22    1
    24     9    23    1
    25    10    24    1
    26    11    25    1
    27    12    26    1
    28    13    27    1
    29    15    28    1
    30    15    29    1
    31    15    30    1
    32    16    31    1
    33    17    32    1
