
     RDKit          3D

 32 33  0  0  0  0  0  0  0  0999 V2000
   -2.2821   -2.9608    1.4582 C   0  0  0  0  0  0  0  0  0  0  0  0
   -1.3928   -2.0082    0.9255 O   0  0  0  0  0  0  0  0  0  0  0  0
   -1.8901   -0.8464    0.3956 C   0  0  0  0  0  0  0  0  0  0  0  0
   -0.9393    0.0406   -0.1096 C   0  0  0  0  0  0  0  0  0  0  0  0
    0.4176   -0.2566   -0.0671 O   0  0  0  0  0  0  0  0  0  0  0  0
    1.3033    0.7082   -0.6054 C   0  0  0  0  0  0  0  0  0  0  0  0
    2.7143    0.2354   -0.4812 C   0  0  0  0  0  0  0  0  0  0  0  0
    3.7403    0.9831   -0.9244 N   0  0  0  0  0  0  0  0  0  0  0  0
    5.0316    0.5992   -0.8346 C   0  0  0  0  0  0  0  0  0  0  0  0
    5.3132   -0.6213   -0.2593 C   0  0  0  0  0  0  0  0  0  0  0  0
    4.3138   -1.4667    0.2296 C   0  0  0  0  0  0  0  0  0  0  0  0
    3.0176   -0.9872    0.0935 C   0  0  0  0  0  0  0  0  0  0  0  0
   -1.3363    1.2574   -0.6740 C   0  0  0  0  0  0  0  0  0  0  0  0
   -2.6777    1.6114   -0.7455 C   0  0  0  0  0  0  0  0  0  0  0  0
   -3.1070    2.9031   -1.3439 C   0  0  0  0  0  0  0  0  0  0  0  0
   -3.6053    0.7329   -0.2461 C   0  0  0  0  0  0  0  0  0  0  0  0
   -3.2138   -0.4677    0.3107 C   0  0  0  0  0  0  0  0  0  0  0  0
   -1.8188   -3.9754    1.4940 H   0  0  0  0  0  0  0  0  0  0  0  0
   -2.4930   -2.6862    2.5204 H   0  0  0  0  0  0  0  0  0  0  0  0
   -3.2271   -3.0692    0.9076 H   0  0  0  0  0  0  0  0  0  0  0  0
    1.1470    1.6662   -0.1008 H   0  0  0  0  0  0  0  0  0  0  0  0
    1.0379    0.8460   -1.6757 H   0  0  0  0  0  0  0  0  0  0  0  0
    5.8098    1.2524   -1.2128 H   0  0  0  0  0  0  0  0  0  0  0  0
    6.3519   -0.9740   -0.1657 H   0  0  0  0  0  0  0  0  0  0  0  0
    4.5030   -2.4277    0.6850 H   0  0  0  0  0  0  0  0  0  0  0  0
    2.2062   -1.6027    0.4558 H   0  0  0  0  0  0  0  0  0  0  0  0
   -0.6326    1.9714   -1.0760 H   0  0  0  0  0  0  0  0  0  0  0  0
   -2.4304    3.1990   -2.1839 H   0  0  0  0  0  0  0  0  0  0  0  0
   -3.1221    3.7139   -0.5983 H   0  0  0  0  0  0  0  0  0  0  0  0
   -4.1431    2.8360   -1.7359 H   0  0  0  0  0  0  0  0  0  0  0  0
   -4.6605    0.9605   -0.2775 H   0  0  0  0  0  0  0  0  0  0  0  0
   -3.9357   -1.1667    0.7068 H   0  0  0  0  0  0  0  0  0  0  0  0
  1  2  1  0
  2  3  1  0
  3  4  2  0
  4  5  1  0
  5  6  1  0
  6  7  1  0
  7  8  2  0
  8  9  1  0
  9 10  2  0
 10 11  1  0
 11 12  2  0
  4 13  1  0
 13 14  2  0
 14 15  1  0
 14 16  1  0
 16 17  2  0
 17  3  1  0
 12  7  1  0
  1 18  1  0
  1 19  1  0
  1 20  1  0
  6 21  1  0
  6 22  1  0
  9 23  1  0
 10 24  1  0
 11 25  1  0
 12 26  1  0
 13 27  1  0
 15 28  1  0
 15 29  1  0
 15 30  1  0
 16 31  1  0
 17 32  1  0
M  END
$$$$
