
     RDKit          3D

 40 42  0  0  0  0  0  0  0  0999 V2000
   -3.7462    2.8442   -0.0315 O   0  0  0  0  0  0  0  0  0  0  0  0
   -2.5834    2.3429   -0.0124 C   0  0  0  0  0  0  0  0  0  0  0  0
   -1.4358    3.1819   -0.0357 N   0  0  0  0  0  0  0  0  0  0  0  0
   -0.1436    2.5907   -0.0126 C   0  0  0  0  0  0  0  0  0  0  0  0
    0.9487    3.4368   -0.0504 C   0  0  0  0  0  0  0  0  0  0  0  0
    0.7052    5.1548   -0.1077 Cl  0  0  0  0  0  0  0  0  0  0  0  0
    2.2382    2.9232   -0.0427 C   0  0  0  0  0  0  0  0  0  0  0  0
    2.4267    1.5535    0.0031 C   0  0  0  0  0  0  0  0  0  0  0  0
    1.3390    0.7057    0.0400 C   0  0  0  0  0  0  0  0  0  0  0  0
    1.4839   -0.6247    0.0867 O   0  0  0  0  0  0  0  0  0  0  0  0
    2.3951   -1.6091    0.0963 C   0  0  0  0  0  0  0  0  0  0  0  0
    3.2811   -1.8277   -1.0850 C   0  0  0  0  0  0  0  0  0  0  0  0
    4.1011   -0.8269   -1.4794 O   0  0  0  0  0  0  0  0  0  0  0  0
    0.0228    1.2362    0.0328 C   0  0  0  0  0  0  0  0  0  0  0  0
   -1.1198    0.2800    0.0848 C   0  0  0  0  0  0  0  0  0  0  0  0
   -1.0933   -0.7143   -1.0441 C   0  0  0  0  0  0  0  0  0  0  0  0
   -1.4291   -2.1094   -0.6331 C   0  0  0  0  0  0  0  0  0  0  0  0
   -2.5317   -2.1987    0.3738 C   0  0  0  0  0  0  0  0  0  0  0  0
   -2.3253   -1.3112    1.5617 C   0  0  0  0  0  0  0  0  0  0  0  0
   -1.0995   -0.4301    1.4461 C   0  0  0  0  0  0  0  0  0  0  0  0
   -2.3802    0.9585    0.0319 N   0  0  0  0  0  0  0  0  0  0  0  0
   -1.5903    4.2196   -0.0695 H   0  0  0  0  0  0  0  0  0  0  0  0
    3.1202    3.5731   -0.0719 H   0  0  0  0  0  0  0  0  0  0  0  0
    3.4572    1.1685    0.0297 H   0  0  0  0  0  0  0  0  0  0  0  0
    3.0162   -1.6295    1.0600 H   0  0  0  0  0  0  0  0  0  0  0  0
    1.8289   -2.6026    0.2125 H   0  0  0  0  0  0  0  0  0  0  0  0
    3.9455   -2.7155   -0.8465 H   0  0  0  0  0  0  0  0  0  0  0  0
    2.6377   -2.1578   -1.9539 H   0  0  0  0  0  0  0  0  0  0  0  0
    4.9328   -0.7338   -0.9552 H   0  0  0  0  0  0  0  0  0  0  0  0
   -0.1239   -0.7307   -1.5963 H   0  0  0  0  0  0  0  0  0  0  0  0
   -1.8434   -0.4208   -1.8363 H   0  0  0  0  0  0  0  0  0  0  0  0
   -1.7946   -2.6525   -1.5537 H   0  0  0  0  0  0  0  0  0  0  0  0
   -0.5171   -2.6380   -0.2580 H   0  0  0  0  0  0  0  0  0  0  0  0
   -3.5203   -2.0205   -0.1413 H   0  0  0  0  0  0  0  0  0  0  0  0
   -2.6005   -3.2843    0.6811 H   0  0  0  0  0  0  0  0  0  0  0  0
   -3.1897   -0.6705    1.7850 H   0  0  0  0  0  0  0  0  0  0  0  0
   -2.1468   -1.9663    2.4486 H   0  0  0  0  0  0  0  0  0  0  0  0
   -0.2043   -1.0213    1.6148 H   0  0  0  0  0  0  0  0  0  0  0  0
   -1.2064    0.3722    2.2037 H   0  0  0  0  0  0  0  0  0  0  0  0
   -3.2550    0.3541    0.0249 H   0  0  0  0  0  0  0  0  0  0  0  0
  1  2  2  0
  2  3  1  0
  3  4  1  0
  4  5  2  0
  5  6  1  0
  5  7  1  0
  7  8  2  0
  8  9  1  0
  9 10  1  0
 10 11  1  0
 11 12  1  0
 12 13  1  0
  9 14  2  0
 14 15  1  0
 15 16  1  0
 16 17  1  0
 17 18  1  0
 18 19  1  0
 19 20  1  0
 15 21  1  0
 21  2  1  0
 14  4  1  0
 20 15  1  0
  3 22  1  0
  7 23  1  0
  8 24  1  0
 11 25  1  0
 11 26  1  0
 12 27  1  0
 12 28  1  0
 13 29  1  0
 16 30  1  0
 16 31  1  0
 17 32  1  0
 17 33  1  0
 18 34  1  0
 18 35  1  0
 19 36  1  0
 19 37  1  0
 20 38  1  0
 20 39  1  0
 21 40  1  0
M  END
$$$$
