@<TRIPOS>MOLECULE
*****
 40 42 0 0 0
SMALL
GASTEIGER

@<TRIPOS>ATOM
      1 O          -3.7462    2.8442   -0.0315 O.2     1  UNL1       -0.2525
      2 C          -2.5834    2.3429   -0.0124 C.2     1  UNL1        0.3046
      3 N          -1.4358    3.1819   -0.0357 N.am    1  UNL1       -0.2677
      4 C          -0.1436    2.5907   -0.0126 C.ar    1  UNL1        0.0619
      5 C           0.9487    3.4368   -0.0504 C.ar    1  UNL1        0.0627
      6 CL          0.7052    5.1548   -0.1077 Cl      1  UNL1       -0.0816
      7 C           2.2382    2.9232   -0.0427 C.ar    1  UNL1       -0.0381
      8 C           2.4267    1.5535    0.0031 C.ar    1  UNL1       -0.0181
      9 C           1.3390    0.7057    0.0400 C.ar    1  UNL1        0.1277
     10 O           1.4839   -0.6247    0.0867 O.3     1  UNL1       -0.4893
     11 C           2.3951   -1.6091    0.0963 C.3     1  UNL1        0.1126
     12 C           3.2811   -1.8277   -1.0850 C.3     1  UNL1        0.0783
     13 O           4.1011   -0.8269   -1.4794 O.3     1  UNL1       -0.3917
     14 C           0.0228    1.2362    0.0328 C.ar    1  UNL1        0.0401
     15 C          -1.1198    0.2800    0.0848 C.3     1  UNL1        0.0664
     16 C          -1.0933   -0.7143   -1.0441 C.3     1  UNL1       -0.0272
     17 C          -1.4291   -2.1094   -0.6331 C.3     1  UNL1       -0.0508
     18 C          -2.5317   -2.1987    0.3738 C.3     1  UNL1       -0.0529
     19 C          -2.3253   -1.3112    1.5617 C.3     1  UNL1       -0.0508
     20 C          -1.0995   -0.4301    1.4461 C.3     1  UNL1       -0.0272
     21 N          -2.3802    0.9585    0.0319 N.am    1  UNL1       -0.2894
     22 H          -1.5903    4.2196   -0.0695 H       1  UNL1        0.1564
     23 H           3.1202    3.5731   -0.0719 H       1  UNL1        0.0634
     24 H           3.4572    1.1685    0.0297 H       1  UNL1        0.0655
     25 H           3.0162   -1.6295    1.0600 H       1  UNL1        0.0720
     26 H           1.8289   -2.6026    0.2125 H       1  UNL1        0.0720
     27 H           3.9455   -2.7155   -0.8465 H       1  UNL1        0.0591
     28 H           2.6377   -2.1578   -1.9539 H       1  UNL1        0.0591
     29 H           4.9328   -0.7338   -0.9552 H       1  UNL1        0.2095
     30 H          -0.1239   -0.7307   -1.5963 H       1  UNL1        0.0289
     31 H          -1.8434   -0.4208   -1.8363 H       1  UNL1        0.0289
     32 H          -1.7946   -2.6525   -1.5537 H       1  UNL1        0.0266
     33 H          -0.5171   -2.6380   -0.2580 H       1  UNL1        0.0266
     34 H          -3.5203   -2.0205   -0.1413 H       1  UNL1        0.0265
     35 H          -2.6005   -3.2843    0.6811 H       1  UNL1        0.0265
     36 H          -3.1897   -0.6705    1.7850 H       1  UNL1        0.0266
     37 H          -2.1468   -1.9663    2.4486 H       1  UNL1        0.0266
     38 H          -0.2043   -1.0213    1.6148 H       1  UNL1        0.0289
     39 H          -1.2064    0.3722    2.2037 H       1  UNL1        0.0289
     40 H          -3.2550    0.3541    0.0249 H       1  UNL1        0.1511
@<TRIPOS>BOND
     1     1     2    2
     2     2     3   am
     3     3     4    1
     4     4     5   ar
     5     5     6    1
     6     5     7   ar
     7     7     8   ar
     8     8     9   ar
     9     9    10    1
    10    10    11    1
    11    11    12    1
    12    12    13    1
    13     9    14   ar
    14    14    15    1
    15    15    16    1
    16    16    17    1
    17    17    18    1
    18    18    19    1
    19    19    20    1
    20    15    21    1
    21    21     2   am
    22    14     4   ar
    23    20    15    1
    24     3    22    1
    25     7    23    1
    26     8    24    1
    27    11    25    1
    28    11    26    1
    29    12    27    1
    30    12    28    1
    31    13    29    1
    32    16    30    1
    33    16    31    1
    34    17    32    1
    35    17    33    1
    36    18    34    1
    37    18    35    1
    38    19    36    1
    39    19    37    1
    40    20    38    1
    41    20    39    1
    42    21    40    1
