@<TRIPOS>MOLECULE
*****
 26 27 0 0 0
SMALL
GASTEIGER

@<TRIPOS>ATOM
      1 C           4.1034   -0.6583   -1.0296 C.1     1  UNL1       -0.1179
      2 C           3.2295   -0.7009   -0.2034 C.1     1  UNL1       -0.0902
      3 C           2.1691   -0.7451    0.8326 C.3     1  UNL1        0.0586
      4 N           1.4683    0.5178    0.8309 N.3     1  UNL1       -0.2989
      5 C           0.6905    0.7340   -0.3629 C.3     1  UNL1        0.0342
      6 C           0.0203    2.0996   -0.2575 C.3     1  UNL1       -0.0294
      7 C          -1.1871    1.8342    0.6354 C.3     1  UNL1       -0.0257
      8 C          -1.5756    0.4332    0.2798 C.ar    1  UNL1       -0.0426
      9 C          -2.7914   -0.1319    0.4833 C.ar    1  UNL1       -0.0583
     10 C          -3.0096   -1.4230    0.0935 C.ar    1  UNL1       -0.0615
     11 C          -1.9807   -2.1108   -0.4969 C.ar    1  UNL1       -0.0614
     12 C          -0.7644   -1.5069   -0.6864 C.ar    1  UNL1       -0.0568
     13 C          -0.4838   -0.2128   -0.3157 C.ar    1  UNL1       -0.0273
     14 H           4.8663   -0.6211   -1.7661 H       1  UNL1        0.1228
     15 H           2.6571   -0.8528    1.8294 H       1  UNL1        0.0561
     16 H           1.5080   -1.5874    0.6149 H       1  UNL1        0.0561
     17 H           2.1088    1.3179    0.9707 H       1  UNL1        0.1234
     18 H           1.2852    0.6258   -1.2686 H       1  UNL1        0.0510
     19 H          -0.3457    2.4130   -1.2454 H       1  UNL1        0.0287
     20 H           0.7023    2.8567    0.1274 H       1  UNL1        0.0287
     21 H          -0.9550    1.9233    1.7137 H       1  UNL1        0.0314
     22 H          -2.0113    2.5395    0.4172 H       1  UNL1        0.0314
     23 H          -3.6252    0.3741    0.9417 H       1  UNL1        0.0620
     24 H          -3.9614   -1.8989    0.2411 H       1  UNL1        0.0618
     25 H          -2.1270   -3.1358   -0.8154 H       1  UNL1        0.0618
     26 H           0.0096   -2.0832   -1.1569 H       1  UNL1        0.0621
@<TRIPOS>BOND
     1     1     2    3
     2     2     3    1
     3     3     4    1
     4     4     5    1
     5     5     6    1
     6     6     7    1
     7     7     8    1
     8     8     9   ar
     9     9    10   ar
    10    10    11   ar
    11    11    12   ar
    12    12    13   ar
    13    13     5    1
    14    13     8   ar
    15     1    14    1
    16     3    15    1
    17     3    16    1
    18     4    17    1
    19     5    18    1
    20     6    19    1
    21     6    20    1
    22     7    21    1
    23     7    22    1
    24     9    23    1
    25    10    24    1
    26    11    25    1
    27    12    26    1
