@<TRIPOS>MOLECULE
*****
 49 53 0 0 0
SMALL
GASTEIGER

@<TRIPOS>ATOM
      1 C           8.9065   -0.6642   -1.4936 C.3     1  UNL1        0.0805
      2 O           7.6500   -0.7854   -2.1235 O.3     1  UNL1       -0.4786
      3 C           6.5058   -0.5474   -1.3819 C.ar    1  UNL1        0.2332
      4 C           5.2398   -0.6451   -1.9245 C.ar    1  UNL1        0.0899
      5 N           4.1524   -0.4001   -1.1488 N.ar    1  UNL1       -0.2435
      6 C           4.2683   -0.0623    0.1423 C.ar    1  UNL1        0.1439
      7 C           3.0657    0.2031    0.9790 C.2     1  UNL1        0.2681
      8 O           3.2212    0.5161    2.1819 O.2     1  UNL1       -0.2681
      9 N           1.7810    0.1040    0.4293 N.am    1  UNL1       -0.2802
     10 C           0.5299    0.3303    1.1119 C.ar    1  UNL1        0.0343
     11 C           0.4254    0.6820    2.4291 C.ar    1  UNL1       -0.0370
     12 C          -0.7965    0.8871    3.0257 C.ar    1  UNL1       -0.0172
     13 C          -1.9885    0.7407    2.2980 C.ar    1  UNL1        0.1346
     14 C          -1.8859    0.3861    0.9914 C.ar    1  UNL1        0.0285
     15 C          -0.6350    0.1825    0.3892 C.ar    1  UNL1       -0.0312
     16 C          -3.0913    0.1190    0.1509 C.3     1  UNL1        0.1218
     17 C          -3.2430   -1.3912    0.0432 C.3     1  UNL1       -0.0096
     18 C          -2.3685   -2.0846   -0.9261 C.3     1  UNL1        0.0037
     19 S          -2.4766   -1.2822   -2.5427 S.3     1  UNL1       -0.0910
     20 C          -2.8193    0.4452   -2.2641 C.2     1  UNL1        0.1478
     21 N          -2.8269    1.3545   -3.3843 N.pl3   1  UNL1       -0.3380
     22 N          -3.0466    0.8191   -1.0822 N.2     1  UNL1       -0.2472
     23 C          -4.3382    0.5029    0.9034 C.ar    1  UNL1        0.0341
     24 C          -5.5197    0.3892    0.1584 C.ar    1  UNL1       -0.0153
     25 C          -6.6924    0.6463    0.8163 C.ar    1  UNL1        0.1329
     26 CL         -8.1871    0.5035   -0.1223 Cl      1  UNL1       -0.0619
     27 N          -6.7325    0.9920    2.1115 N.ar    1  UNL1       -0.2045
     28 C          -5.5873    1.0954    2.8025 C.ar    1  UNL1        0.2574
     29 F          -5.6557    1.4500    4.1236 F       1  UNL1       -0.1799
     30 C          -4.3402    0.8517    2.2094 C.ar    1  UNL1        0.1883
     31 O          -3.1913    0.9844    2.9649 O.3     1  UNL1       -0.4508
     32 C           5.5381    0.0255    0.6479 C.ar    1  UNL1        0.0619
     33 N           6.6226   -0.2094   -0.0902 N.ar    1  UNL1       -0.2178
     34 H           8.8156   -0.4019   -0.4134 H       1  UNL1        0.0660
     35 H           9.3493   -1.7031   -1.4925 H       1  UNL1        0.0660
     36 H           9.5844    0.0481   -2.0095 H       1  UNL1        0.0660
     37 H           5.1664   -0.9185   -2.9665 H       1  UNL1        0.0884
     38 H           1.7464   -0.1689   -0.6051 H       1  UNL1        0.1552
     39 H           1.3173    0.8086    3.0409 H       1  UNL1        0.0637
     40 H          -0.8872    1.1699    4.0814 H       1  UNL1        0.0655
     41 H          -0.5841   -0.0562   -0.6426 H       1  UNL1        0.0641
     42 H          -4.3208   -1.5716   -0.2089 H       1  UNL1        0.0303
     43 H          -3.0476   -1.7598    1.1008 H       1  UNL1        0.0303
     44 H          -2.7689   -3.1598   -1.0186 H       1  UNL1        0.0381
     45 H          -1.3133   -2.1612   -0.6355 H       1  UNL1        0.0381
     46 H          -3.4694    1.1313   -4.1660 H       1  UNL1        0.1442
     47 H          -2.2391    2.1984   -3.4486 H       1  UNL1        0.1442
     48 H          -5.4973    0.1117   -0.8841 H       1  UNL1        0.0652
     49 H           5.6638    0.2947    1.6813 H       1  UNL1        0.0854
@<TRIPOS>BOND
     1     1     2    1
     2     2     3    1
     3     3     4   ar
     4     4     5   ar
     5     5     6   ar
     6     6     7    1
     7     7     8    2
     8     7     9   am
     9     9    10    1
    10    10    11   ar
    11    11    12   ar
    12    12    13   ar
    13    13    14   ar
    14    14    15   ar
    15    14    16    1
    16    16    17    1
    17    17    18    1
    18    18    19    1
    19    19    20    1
    20    20    21    1
    21    20    22    2
    22    16    23    1
    23    23    24   ar
    24    24    25   ar
    25    25    26    1
    26    25    27   ar
    27    27    28   ar
    28    28    29    1
    29    28    30   ar
    30    30    31    1
    31     6    32   ar
    32    32    33   ar
    33    33     3   ar
    34    15    10   ar
    35    22    16    1
    36    30    23   ar
    37    31    13    1
    38     1    34    1
    39     1    35    1
    40     1    36    1
    41     4    37    1
    42     9    38    1
    43    11    39    1
    44    12    40    1
    45    15    41    1
    46    17    42    1
    47    17    43    1
    48    18    44    1
    49    18    45    1
    50    21    46    1
    51    21    47    1
    52    24    48    1
    53    32    49    1
