@<TRIPOS>MOLECULE
*****
 49 52 0 0 0
SMALL
GASTEIGER

@<TRIPOS>ATOM
      1 C           0.4320    3.1350   -2.1323 C.3     1  UNL1       -0.0369
      2 C           0.2075    1.8728   -1.3925 C.ar    1  UNL1       -0.0132
      3 C           1.2206    0.9638   -1.2785 C.ar    1  UNL1       -0.0349
      4 C           1.0097   -0.2094   -0.5928 C.ar    1  UNL1        0.0332
      5 N           2.0325   -1.1765   -0.4553 N.pl3   1  UNL1       -0.2976
      6 C           3.3607   -0.8848   -0.8004 C.ar    1  UNL1        0.1523
      7 N           3.7790   -0.7729   -2.0692 N.ar    1  UNL1       -0.2184
      8 C           5.0534   -0.5099   -2.3919 C.ar    1  UNL1        0.1188
      9 N           5.9585   -0.3495   -1.4217 N.ar    1  UNL1       -0.2337
     10 C           5.6442   -0.4413   -0.1244 C.ar    1  UNL1        0.0957
     11 C           6.6033   -0.2786    0.8624 C.ar    1  UNL1       -0.0142
     12 C           6.2078   -0.3949    2.1694 C.ar    1  UNL1        0.0611
     13 CL          7.3994   -0.2022    3.4414 Cl      1  UNL1       -0.0819
     14 C           4.8881   -0.6649    2.4538 C.ar    1  UNL1        0.0468
     15 N           3.9613   -0.8216    1.4866 N.ar    1  UNL1       -0.2485
     16 C           4.3300   -0.7119    0.1931 C.ar    1  UNL1        0.1291
     17 C          -0.2520   -0.4166   -0.0359 C.ar    1  UNL1       -0.0322
     18 C          -1.2934    0.4650   -0.1239 C.ar    1  UNL1        0.0198
     19 C          -2.6228    0.3002    0.4784 C.3     1  UNL1        0.1258
     20 C          -2.8518    1.5233    1.3804 C.3     1  UNL1        0.1196
     21 F          -1.8588    1.5829    2.3580 F       1  UNL1       -0.2462
     22 C          -2.8325   -0.9015    1.3133 C.3     1  UNL1        0.0251
     23 C          -3.9086   -1.8547    0.8554 C.3     1  UNL1        0.1998
     24 C          -5.2236   -1.5976    1.5622 C.3     1  UNL1        0.4266
     25 F          -6.1261   -2.5284    1.0673 F       1  UNL1       -0.1669
     26 F          -5.1236   -1.7856    2.9117 F       1  UNL1       -0.1669
     27 F          -5.7424   -0.3574    1.2135 F       1  UNL1       -0.1669
     28 O          -4.1034   -1.8337   -0.5414 O.2     1  UNL1       -0.4534
     29 C          -4.2771   -0.5467   -1.0874 C.2     1  UNL1        0.2766
     30 N          -5.2047   -0.3239   -2.1586 N.pl3   1  UNL1       -0.3134
     31 N          -3.5762    0.3821   -0.5826 N.2     1  UNL1       -0.2228
     32 C          -1.0462    1.6272   -0.8194 C.ar    1  UNL1        0.1319
     33 F          -1.9900    2.6019   -1.0337 F       1  UNL1       -0.2048
     34 H           1.4668    3.2358   -2.4564 H       1  UNL1        0.0278
     35 H           0.0907    3.9682   -1.4635 H       1  UNL1        0.0278
     36 H          -0.2885    3.1439   -2.9861 H       1  UNL1        0.0278
     37 H           2.2133    1.1202   -1.7136 H       1  UNL1        0.0640
     38 H           1.7874   -2.1125   -0.0929 H       1  UNL1        0.1536
     39 H           5.3979   -0.4187   -3.4215 H       1  UNL1        0.1048
     40 H           7.6237   -0.0697    0.6201 H       1  UNL1        0.0654
     41 H           4.5702   -0.7596    3.4858 H       1  UNL1        0.0844
     42 H          -0.3756   -1.3288    0.4782 H       1  UNL1        0.0640
     43 H          -2.9070    2.4685    0.8848 H       1  UNL1        0.0643
     44 H          -3.7922    1.3364    1.9976 H       1  UNL1        0.0643
     45 H          -1.9585   -1.5145    1.5677 H       1  UNL1        0.0331
     46 H          -3.1984   -0.5613    2.3410 H       1  UNL1        0.0331
     47 H          -3.6333   -2.9012    1.1268 H       1  UNL1        0.0826
     48 H          -6.0971    0.1332   -1.9683 H       1  UNL1        0.1466
     49 H          -4.9543   -0.6298   -3.1046 H       1  UNL1        0.1466
@<TRIPOS>BOND
     1     1     2    1
     2     2     3   ar
     3     3     4   ar
     4     4     5    1
     5     5     6    1
     6     6     7   ar
     7     7     8   ar
     8     8     9   ar
     9     9    10   ar
    10    10    11   ar
    11    11    12   ar
    12    12    13    1
    13    12    14   ar
    14    14    15   ar
    15    15    16   ar
    16     4    17   ar
    17    17    18   ar
    18    18    19    1
    19    19    20    1
    20    20    21    1
    21    19    22    1
    22    22    23    1
    23    23    24    1
    24    24    25    1
    25    24    26    1
    26    24    27    1
    27    23    28    1
    28    28    29    1
    29    29    30    1
    30    29    31    2
    31    18    32   ar
    32    32    33    1
    33    32     2   ar
    34    16     6   ar
    35    31    19    1
    36    16    10   ar
    37     1    34    1
    38     1    35    1
    39     1    36    1
    40     3    37    1
    41     5    38    1
    42     8    39    1
    43    11    40    1
    44    14    41    1
    45    17    42    1
    46    20    43    1
    47    20    44    1
    48    22    45    1
    49    22    46    1
    50    23    47    1
    51    30    48    1
    52    30    49    1
