@<TRIPOS>MOLECULE
*****
 57 60 0 0 0
SMALL
GASTEIGER

@<TRIPOS>ATOM
      1 N           6.1242    0.1319   -3.2270 N.2     1  UNL1       -0.0994
      2 C           6.7735    0.5216   -2.2021 C.2     1  UNL1        0.3082
      3 N           8.1786    0.6138   -2.2428 N.pl3   1  UNL1       -0.2466
      4 C           6.0679    0.8717   -0.9884 C.ar    1  UNL1        0.0682
      5 C           6.5913    1.8294   -0.1333 C.ar    1  UNL1       -0.0467
      6 C           5.9512    2.1976    1.0407 C.ar    1  UNL1       -0.0575
      7 C           4.7555    1.6007    1.3815 C.ar    1  UNL1       -0.0193
      8 C           4.1989    0.6329    0.5451 C.ar    1  UNL1        0.1293
      9 O           2.9967    0.0420    0.9011 O.3     1  UNL1       -0.4541
     10 C           3.0332   -1.1005    1.6718 C.ar    1  UNL1        0.1495
     11 C           4.2343   -1.6467    2.0821 C.ar    1  UNL1       -0.0175
     12 C           4.2812   -2.7901    2.8537 C.ar    1  UNL1       -0.0582
     13 C           3.0965   -3.3791    3.2084 C.ar    1  UNL1       -0.0598
     14 C           1.8768   -2.8261    2.7929 C.ar    1  UNL1       -0.0369
     15 C           1.8254   -1.6854    2.0229 C.ar    1  UNL1        0.0764
     16 N           0.6354   -1.0922    1.5809 N.am    1  UNL1       -0.2785
     17 C          -0.6898   -1.4940    1.8040 C.2     1  UNL1        0.2483
     18 O          -0.8998   -2.5221    2.4889 O.2     1  UNL1       -0.2699
     19 C          -1.8649   -0.7721    1.2756 C.ar    1  UNL1        0.0371
     20 C          -3.1428   -1.2156    1.5286 C.ar    1  UNL1       -0.0490
     21 C          -4.2886   -0.5994    1.0722 C.ar    1  UNL1       -0.0533
     22 C          -4.1595    0.5347    0.3112 C.ar    1  UNL1       -0.0160
     23 C          -5.3512    1.2076   -0.2223 C.ar    1  UNL1        0.0084
     24 C          -5.7259    2.4377    0.2879 C.ar    1  UNL1       -0.0522
     25 C          -6.8479    3.1052   -0.1424 C.ar    1  UNL1       -0.0611
     26 C          -7.6431    2.5466   -1.1172 C.ar    1  UNL1       -0.0599
     27 C          -7.2836    1.3275   -1.6329 C.ar    1  UNL1       -0.0348
     28 C          -6.1410    0.6468   -1.1963 C.ar    1  UNL1        0.1127
     29 S          -5.7586   -0.8673   -1.9500 S.O2    1  UNL1        0.0565
     30 N          -6.9550   -1.2297   -3.1655 N.3     1  UNL1       -0.2035
     31 O          -5.7194   -2.0363   -1.0464 O.2     1  UNL1       -0.1532
     32 O          -4.4400   -0.7912   -2.6696 O.2     1  UNL1       -0.1532
     33 C          -2.8927    1.0065    0.0394 C.ar    1  UNL1       -0.0533
     34 C          -1.7566    0.3640    0.5139 C.ar    1  UNL1       -0.0490
     35 C           4.8664    0.2933   -0.6152 C.ar    1  UNL1       -0.0045
     36 H           6.6426   -0.1173   -4.0938 H       1  UNL1        0.3633
     37 H           8.7038    1.1115   -1.4695 H       1  UNL1        0.2884
     38 H           8.7509    0.2046   -3.0201 H       1  UNL1        0.2884
     39 H           7.5337    2.3428   -0.3398 H       1  UNL1        0.0626
     40 H           6.3732    2.9509    1.7031 H       1  UNL1        0.0619
     41 H           4.2173    1.8435    2.2723 H       1  UNL1        0.0654
     42 H           5.1721   -1.1996    1.8141 H       1  UNL1        0.0655
     43 H           5.1994   -3.2438    3.1917 H       1  UNL1        0.0619
     44 H           3.0650   -4.2674    3.8055 H       1  UNL1        0.0618
     45 H           0.9988   -3.3356    3.1050 H       1  UNL1        0.0637
     46 H           0.7251   -0.2068    0.9881 H       1  UNL1        0.1552
     47 H          -3.2344   -2.1110    2.1287 H       1  UNL1        0.0625
     48 H          -5.2837   -1.0034    1.3363 H       1  UNL1        0.0624
     49 H          -5.1042    2.9069    1.0710 H       1  UNL1        0.0624
     50 H          -7.1373    4.0688    0.2604 H       1  UNL1        0.0618
     51 H          -8.5482    3.0575   -1.4815 H       1  UNL1        0.0618
     52 H          -7.9241    0.8862   -2.4125 H       1  UNL1        0.0637
     53 H          -7.1325   -0.4134   -3.7712 H       1  UNL1        0.1442
     54 H          -7.8017   -1.5891   -2.6731 H       1  UNL1        0.1442
     55 H          -2.7809    1.9120   -0.5668 H       1  UNL1        0.0624
     56 H          -0.8230    0.7965    0.2564 H       1  UNL1        0.0625
     57 H           4.4616   -0.4575   -1.2911 H       1  UNL1        0.0663
@<TRIPOS>BOND
     1     1     2    2
     2     2     3    1
     3     2     4    1
     4     4     5   ar
     5     5     6   ar
     6     6     7   ar
     7     7     8   ar
     8     8     9    1
     9     9    10    1
    10    10    11   ar
    11    11    12   ar
    12    12    13   ar
    13    13    14   ar
    14    14    15   ar
    15    15    16    1
    16    16    17   am
    17    17    18    2
    18    17    19    1
    19    19    20   ar
    20    20    21   ar
    21    21    22   ar
    22    22    23    1
    23    23    24   ar
    24    24    25   ar
    25    25    26   ar
    26    26    27   ar
    27    27    28   ar
    28    28    29    1
    29    29    30    1
    30    29    31    2
    31    29    32    2
    32    22    33   ar
    33    33    34   ar
    34     8    35   ar
    35    35     4   ar
    36    15    10   ar
    37    34    19   ar
    38    28    23   ar
    39     1    36    1
    40     3    37    1
    41     3    38    1
    42     5    39    1
    43     6    40    1
    44     7    41    1
    45    11    42    1
    46    12    43    1
    47    13    44    1
    48    14    45    1
    49    16    46    1
    50    20    47    1
    51    21    48    1
    52    24    49    1
    53    25    50    1
    54    26    51    1
    55    27    52    1
    56    30    53    1
    57    30    54    1
    58    33    55    1
    59    34    56    1
    60    35    57    1
