@<TRIPOS>MOLECULE
*****
 74 77 0 0 0
SMALL
GASTEIGER

@<TRIPOS>ATOM
      1 C          10.0543   -1.0928    2.4997 C.3     1  UNL1       -0.0607
      2 C          10.1672   -0.4511    1.1434 C.3     1  UNL1       -0.0194
      3 C          11.0184   -1.3422    0.2697 C.3     1  UNL1       -0.0607
      4 C           8.7842   -0.3915    0.4819 C.3     1  UNL1        0.1276
      5 N           8.9730    0.2275   -0.7954 N.3     1  UNL1       -0.1759
      6 S           8.1310    1.7219   -0.9434 S.O2    1  UNL1        0.0591
      7 O           8.6458    2.6759    0.0984 O.2     1  UNL1       -0.1530
      8 O           8.3977    2.2403   -2.3334 O.2     1  UNL1       -0.1530
      9 C           6.4237    1.4434   -0.7767 C.ar    1  UNL1        0.1053
     10 C           5.7160    1.1247   -1.9372 C.ar    1  UNL1       -0.0348
     11 C           4.3638    0.9001   -1.8467 C.ar    1  UNL1       -0.0522
     12 C           3.6568    0.9717   -0.6645 C.ar    1  UNL1       -0.0178
     13 C           2.2181    0.7214   -0.6430 C.ar    1  UNL1       -0.0179
     14 C           1.4257    1.0455   -1.7242 C.ar    1  UNL1       -0.0537
     15 C           0.0613    0.8181   -1.7287 C.ar    1  UNL1       -0.0548
     16 C          -0.5707    0.2523   -0.6421 C.ar    1  UNL1       -0.0104
     17 C          -2.0441    0.0107   -0.6531 C.3     1  UNL1        0.1146
     18 O          -2.7235    1.1371   -0.1387 O.3     1  UNL1       -0.4874
     19 C          -4.1079    1.0862   -0.0739 C.ar    1  UNL1        0.1210
     20 C          -4.8464   -0.0174   -0.4910 C.ar    1  UNL1       -0.0193
     21 C          -6.2246   -0.0298   -0.4102 C.ar    1  UNL1       -0.0478
     22 C          -6.8636    1.0752    0.0938 C.ar    1  UNL1        0.0179
     23 C          -8.2961    1.1092    0.2085 C.2     1  UNL1        0.1662
     24 O          -8.8646    2.1487    0.6432 O.2     1  UNL1       -0.2918
     25 C          -9.0991   -0.0698   -0.1818 C.3     1  UNL1        0.0221
     26 C          -8.7647   -1.2222    0.7322 C.3     1  UNL1       -0.0432
     27 C          -9.9391   -1.5448    1.6511 C.3     1  UNL1       -0.0524
     28 C         -11.1390   -1.9743    0.8215 C.3     1  UNL1       -0.0530
     29 C         -11.4786   -0.8980   -0.1782 C.3     1  UNL1       -0.0524
     30 C         -10.5618    0.3047   -0.0913 C.3     1  UNL1       -0.0432
     31 C          -6.1450    2.1915    0.5172 C.ar    1  UNL1       -0.0478
     32 C          -4.7823    2.1627    0.4200 C.ar    1  UNL1       -0.0193
     33 C           0.2139   -0.0750    0.4433 C.ar    1  UNL1       -0.0548
     34 C           1.5843    0.1551    0.4439 C.ar    1  UNL1       -0.0537
     35 C           4.3758    1.2876    0.4666 C.ar    1  UNL1       -0.0522
     36 C           5.7435    1.5215    0.4155 C.ar    1  UNL1       -0.0348
     37 C           8.2367   -1.7530    0.2942 C.2     1  UNL1        0.3238
     38 O           7.9886   -2.4890    1.2763 O.2     1  UNL1       -0.2492
     39 O           7.9864   -2.2431   -0.9785 O.3     1  UNL1       -0.4795
     40 H           9.0783   -0.8195    2.9776 H       1  UNL1        0.0233
     41 H          10.0984   -2.1915    2.4752 H       1  UNL1        0.0233
     42 H          10.9094   -0.7234    3.1334 H       1  UNL1        0.0233
     43 H          10.6333    0.5351    1.1634 H       1  UNL1        0.0316
     44 H          10.7228   -1.2625   -0.8014 H       1  UNL1        0.0233
     45 H          12.0881   -1.0158    0.3029 H       1  UNL1        0.0233
     46 H          10.9395   -2.4132    0.5417 H       1  UNL1        0.0233
     47 H           8.1261    0.2488    1.0973 H       1  UNL1        0.0595
     48 H           8.7071   -0.4281   -1.5568 H       1  UNL1        0.1489
     49 H           6.2510    1.0594   -2.8978 H       1  UNL1        0.0637
     50 H           3.8075    0.6509   -2.7510 H       1  UNL1        0.0624
     51 H           1.9210    1.4899   -2.5781 H       1  UNL1        0.0624
     52 H          -0.5520    1.0835   -2.5998 H       1  UNL1        0.0622
     53 H          -2.4045   -0.0944   -1.7140 H       1  UNL1        0.0748
     54 H          -2.2799   -0.9248   -0.1535 H       1  UNL1        0.0748
     55 H          -4.2838   -0.8493   -0.8754 H       1  UNL1        0.0654
     56 H          -6.7464   -0.9055   -0.7516 H       1  UNL1        0.0626
     57 H          -8.8762   -0.3680   -1.2298 H       1  UNL1        0.0381
     58 H          -7.8735   -0.9802    1.3414 H       1  UNL1        0.0272
     59 H          -8.5839   -2.1267    0.1309 H       1  UNL1        0.0272
     60 H         -10.2082   -0.6532    2.2193 H       1  UNL1        0.0265
     61 H          -9.6770   -2.3874    2.3118 H       1  UNL1        0.0265
     62 H         -10.9106   -2.9423    0.3161 H       1  UNL1        0.0265
     63 H         -11.9791   -2.1018    1.5182 H       1  UNL1        0.0265
     64 H         -11.4272   -1.3531   -1.1917 H       1  UNL1        0.0265
     65 H         -12.5060   -0.5432   -0.0015 H       1  UNL1        0.0265
     66 H         -10.7250    0.8696    0.8362 H       1  UNL1        0.0272
     67 H         -10.7656    0.9797   -0.9414 H       1  UNL1        0.0272
     68 H          -6.6716    3.0688    0.9181 H       1  UNL1        0.0626
     69 H          -4.2334    3.0475    0.7571 H       1  UNL1        0.0654
     70 H          -0.2743   -0.5175    1.2951 H       1  UNL1        0.0622
     71 H           2.2021   -0.1018    1.2962 H       1  UNL1        0.0624
     72 H           3.8517    1.3518    1.4096 H       1  UNL1        0.0624
     73 H           6.3014    1.7710    1.3059 H       1  UNL1        0.0637
     74 H           7.6250   -3.1917   -1.0655 H       1  UNL1        0.2951
@<TRIPOS>BOND
     1     1     2    1
     2     2     3    1
     3     2     4    1
     4     4     5    1
     5     5     6    1
     6     6     7    2
     7     6     8    2
     8     6     9    1
     9     9    10   ar
    10    10    11   ar
    11    11    12   ar
    12    12    13    1
    13    13    14   ar
    14    14    15   ar
    15    15    16   ar
    16    16    17    1
    17    17    18    1
    18    18    19    1
    19    19    20   ar
    20    20    21   ar
    21    21    22   ar
    22    22    23    1
    23    23    24    2
    24    23    25    1
    25    25    26    1
    26    26    27    1
    27    27    28    1
    28    28    29    1
    29    29    30    1
    30    22    31   ar
    31    31    32   ar
    32    16    33   ar
    33    33    34   ar
    34    12    35   ar
    35    35    36   ar
    36     4    37    1
    37    37    38    2
    38    37    39    1
    39    36     9   ar
    40    34    13   ar
    41    32    19   ar
    42    30    25    1
    43     1    40    1
    44     1    41    1
    45     1    42    1
    46     2    43    1
    47     3    44    1
    48     3    45    1
    49     3    46    1
    50     4    47    1
    51     5    48    1
    52    10    49    1
    53    11    50    1
    54    14    51    1
    55    15    52    1
    56    17    53    1
    57    17    54    1
    58    20    55    1
    59    21    56    1
    60    25    57    1
    61    26    58    1
    62    26    59    1
    63    27    60    1
    64    27    61    1
    65    28    62    1
    66    28    63    1
    67    29    64    1
    68    29    65    1
    69    30    66    1
    70    30    67    1
    71    31    68    1
    72    32    69    1
    73    33    70    1
    74    34    71    1
    75    35    72    1
    76    36    73    1
    77    39    74    1
