@<TRIPOS>MOLECULE
*****
 81 86 0 0 0
SMALL
GASTEIGER

@<TRIPOS>ATOM
      1 C          12.9248   -1.0539    1.6050 C.3     1  UNL1        0.0788
      2 O          11.7577   -1.7515    2.0326 O.3     1  UNL1       -0.4951
      3 C          10.5170   -1.3475    1.5925 C.ar    1  UNL1        0.1202
      4 C          10.3563   -0.2958    0.7541 C.ar    1  UNL1       -0.0182
      5 C           9.0886    0.0855    0.3290 C.ar    1  UNL1       -0.0370
      6 C           7.9715   -0.5851    0.7411 C.ar    1  UNL1        0.0338
      7 N           6.6450   -0.2636    0.3260 N.pl3   1  UNL1       -0.2835
      8 C           6.3476    0.4854   -0.8099 C.ar    1  UNL1        0.2226
      9 N           7.2699    0.8961   -1.6659 N.ar    1  UNL1       -0.2225
     10 C           6.9598    1.6117   -2.7539 C.ar    1  UNL1        0.0362
     11 C           5.6289    1.9241   -2.9770 C.ar    1  UNL1        0.0186
     12 C           4.6388    1.5067   -2.0955 C.ar    1  UNL1        0.2249
     13 O           3.3329    1.8314   -2.3448 O.3     1  UNL1       -0.4373
     14 C           2.2160    1.5005   -1.6254 C.ar    1  UNL1        0.1381
     15 C           1.4857    2.5216   -1.0607 C.ar    1  UNL1       -0.0169
     16 C           0.3503    2.2651   -0.3244 C.ar    1  UNL1       -0.0363
     17 C          -0.0623    0.9611   -0.1500 C.ar    1  UNL1        0.0427
     18 N          -1.2412    0.7235    0.6044 N.am    1  UNL1       -0.2686
     19 C          -2.5380    0.6512   -0.0334 C.2     1  UNL1        0.3092
     20 O          -2.5094    0.8131   -1.2768 O.2     1  UNL1       -0.2521
     21 N          -3.7087    0.4151    0.7212 N.am    1  UNL1       -0.2538
     22 C          -4.9625    0.3340    0.1160 C.ar    1  UNL1        0.1299
     23 C          -5.2412    0.4594   -1.2269 C.ar    1  UNL1        0.0021
     24 C          -6.6116    0.3018   -1.3456 C.ar    1  UNL1        0.0706
     25 C          -7.3645    0.3573   -2.6468 C.3     1  UNL1        0.0063
     26 C          -8.8340    0.1445   -2.3547 C.3     1  UNL1       -0.0546
     27 C          -6.9306   -0.7918   -3.5422 C.3     1  UNL1       -0.0546
     28 C          -7.1744    1.6933   -3.3373 C.3     1  UNL1       -0.0546
     29 N          -7.0664    0.0972   -0.1055 N.ar    1  UNL1       -0.1691
     30 N          -6.1089    0.1100    0.7922 N.ar    1  UNL1       -0.2181
     31 C          -6.2805   -0.0788    2.1793 C.ar    1  UNL1        0.0674
     32 C          -6.9222   -1.2185    2.6710 C.ar    1  UNL1       -0.0359
     33 C          -7.0906   -1.4015    4.0266 C.ar    1  UNL1       -0.0568
     34 C          -6.6382   -0.4780    4.9538 C.ar    1  UNL1       -0.0503
     35 C          -6.8251   -0.6841    6.4146 C.3     1  UNL1       -0.0397
     36 C          -6.0054    0.6451    4.4622 C.ar    1  UNL1       -0.0568
     37 C          -5.8283    0.8432    3.0925 C.ar    1  UNL1       -0.0359
     38 C           0.6677   -0.0804   -0.7166 C.ar    1  UNL1        0.0069
     39 C           0.2245   -1.3763   -0.5331 C.ar    1  UNL1       -0.0521
     40 C           0.9539   -2.4140   -1.1128 C.ar    1  UNL1       -0.0611
     41 C           2.0875   -2.1782   -1.8519 C.ar    1  UNL1       -0.0611
     42 C           2.5019   -0.8681   -2.0145 C.ar    1  UNL1       -0.0505
     43 C           1.8128    0.1946   -1.4583 C.ar    1  UNL1        0.0262
     44 N           5.0257    0.7974   -1.0339 N.ar    1  UNL1       -0.1789
     45 C           8.1468   -1.6802    1.6157 C.ar    1  UNL1       -0.0370
     46 C           9.4014   -2.0323    2.0166 C.ar    1  UNL1       -0.0182
     47 H          12.9899   -0.1259    2.2106 H       1  UNL1        0.0660
     48 H          13.7981   -1.7126    1.8122 H       1  UNL1        0.0660
     49 H          12.9278   -0.8347    0.5272 H       1  UNL1        0.0660
     50 H          11.2101    0.2581    0.4062 H       1  UNL1        0.0655
     51 H           9.0440    0.9327   -0.3204 H       1  UNL1        0.0637
     52 H           5.8504   -0.6187    0.9235 H       1  UNL1        0.1550
     53 H           7.7444    1.9371   -3.4440 H       1  UNL1        0.0832
     54 H           5.3151    2.4965   -3.8344 H       1  UNL1        0.0686
     55 H           1.7676    3.5627   -1.1677 H       1  UNL1        0.0655
     56 H          -0.2173    3.0998    0.1178 H       1  UNL1        0.0637
     57 H          -1.2320    0.5929    1.6324 H       1  UNL1        0.1564
     58 H          -3.6118    0.2972    1.7481 H       1  UNL1        0.1578
     59 H          -4.5956    0.6408   -2.0710 H       1  UNL1        0.0671
     60 H          -9.0478   -0.9389   -2.2402 H       1  UNL1        0.0239
     61 H          -9.1181    0.6105   -1.3687 H       1  UNL1        0.0239
     62 H          -9.4714    0.5448   -3.1905 H       1  UNL1        0.0239
     63 H          -7.4682   -1.7145   -3.2245 H       1  UNL1        0.0239
     64 H          -7.2407   -0.5387   -4.5675 H       1  UNL1        0.0239
     65 H          -5.8450   -0.9997   -3.4420 H       1  UNL1        0.0239
     66 H          -8.1438    2.1373   -3.6723 H       1  UNL1        0.0239
     67 H          -6.5339    1.5220   -4.2526 H       1  UNL1        0.0239
     68 H          -6.6436    2.4277   -2.7271 H       1  UNL1        0.0239
     69 H          -7.2763   -1.9419    1.9346 H       1  UNL1        0.0639
     70 H          -7.5929   -2.2972    4.3732 H       1  UNL1        0.0621
     71 H          -7.6503   -0.0469    6.8202 H       1  UNL1        0.0278
     72 H          -7.1648   -1.7379    6.5546 H       1  UNL1        0.0278
     73 H          -5.8635   -0.4893    6.9283 H       1  UNL1        0.0278
     74 H          -5.6258    1.4098    5.1257 H       1  UNL1        0.0621
     75 H          -5.3356    1.7174    2.6919 H       1  UNL1        0.0639
     76 H          -0.6673   -1.5751    0.0474 H       1  UNL1        0.0624
     77 H           0.5758   -3.4259   -0.9487 H       1  UNL1        0.0618
     78 H           2.6136   -3.0216   -2.2781 H       1  UNL1        0.0618
     79 H           3.3768   -0.6864   -2.6012 H       1  UNL1        0.0625
     80 H           7.2563   -2.1908    1.9256 H       1  UNL1        0.0637
     81 H           9.5068   -2.8810    2.6904 H       1  UNL1        0.0655
@<TRIPOS>BOND
     1     1     2    1
     2     2     3    1
     3     3     4   ar
     4     4     5   ar
     5     5     6   ar
     6     6     7    1
     7     7     8    1
     8     8     9   ar
     9     9    10   ar
    10    10    11   ar
    11    11    12   ar
    12    12    13    1
    13    13    14    1
    14    14    15   ar
    15    15    16   ar
    16    16    17   ar
    17    17    18    1
    18    18    19   am
    19    19    20    2
    20    19    21   am
    21    21    22    1
    22    22    23   ar
    23    23    24   ar
    24    24    25    1
    25    25    26    1
    26    25    27    1
    27    25    28    1
    28    24    29   ar
    29    29    30   ar
    30    30    31    1
    31    31    32   ar
    32    32    33   ar
    33    33    34   ar
    34    34    35    1
    35    34    36   ar
    36    36    37   ar
    37    17    38   ar
    38    38    39   ar
    39    39    40   ar
    40    40    41   ar
    41    41    42   ar
    42    42    43   ar
    43    12    44   ar
    44     6    45   ar
    45    45    46   ar
    46    46     3   ar
    47    44     8   ar
    48    43    14   ar
    49    30    22   ar
    50    37    31   ar
    51    43    38   ar
    52     1    47    1
    53     1    48    1
    54     1    49    1
    55     4    50    1
    56     5    51    1
    57     7    52    1
    58    10    53    1
    59    11    54    1
    60    15    55    1
    61    16    56    1
    62    18    57    1
    63    21    58    1
    64    23    59    1
    65    26    60    1
    66    26    61    1
    67    26    62    1
    68    27    63    1
    69    27    64    1
    70    27    65    1
    71    28    66    1
    72    28    67    1
    73    28    68    1
    74    32    69    1
    75    33    70    1
    76    35    71    1
    77    35    72    1
    78    35    73    1
    79    36    74    1
    80    37    75    1
    81    39    76    1
    82    40    77    1
    83    41    78    1
    84    42    79    1
    85    45    80    1
    86    46    81    1
