@<TRIPOS>MOLECULE
*****
 50 50 0 0 0
SMALL
GASTEIGER

@<TRIPOS>ATOM
      1 C          -2.8573   -1.8961   -1.5909 C.3     1  UNL1       -0.0432
      2 C          -3.4824   -1.2315   -0.4173 C.2     1  UNL1       -0.0689
      3 C          -2.8573   -0.4331    0.4162 C.2     1  UNL1       -0.0427
      4 C          -1.4869   -0.0804    0.3558 C.2     1  UNL1       -0.0579
      5 C          -0.5173   -0.3786   -0.4691 C.2     1  UNL1       -0.0586
      6 C           0.8575    0.0862   -0.3337 C.2     1  UNL1       -0.0504
      7 C           1.4044    0.9325    0.7287 C.3     1  UNL1       -0.0397
      8 C           1.7568   -0.3047   -1.2949 C.2     1  UNL1       -0.0588
      9 C           3.1138    0.0759   -1.2472 C.2     1  UNL1       -0.0613
     10 C           4.2788    0.4023   -1.2067 C.2     1  UNL1       -0.0586
     11 C           5.6133    0.7857   -1.1445 C.2     1  UNL1       -0.0437
     12 C           6.2579    1.5934   -0.0921 C.3     1  UNL1       -0.0395
     13 C           6.4636    0.3979   -2.1526 C.2     1  UNL1        0.0252
     14 C           7.8368    0.7177   -2.2133 C.2     1  UNL1        0.3298
     15 O           8.5309    0.2649   -3.2021 O.2     1  UNL1       -0.2458
     16 O           8.5654    1.4803   -1.3264 O.3     1  UNL1       -0.4775
     17 C          -3.7634    0.1634    1.4631 C.3     1  UNL1       -0.0099
     18 C          -3.1457    1.1864    2.2995 C.3     1  UNL1       -0.0558
     19 C          -4.9309    0.8201    0.7173 C.3     1  UNL1       -0.0558
     20 C          -4.3473   -1.0038    2.2462 C.3     1  UNL1       -0.0436
     21 C          -5.1911   -1.8540    1.3313 C.3     1  UNL1       -0.0486
     22 C          -4.8837   -1.6705   -0.1078 C.3     1  UNL1       -0.0314
     23 H          -2.5201   -1.2289   -2.3794 H       1  UNL1        0.0275
     24 H          -2.1211   -2.6640   -1.3429 H       1  UNL1        0.0275
     25 H          -3.7362   -2.4421   -2.1127 H       1  UNL1        0.0275
     26 H          -1.1093    0.5620    1.1962 H       1  UNL1        0.0621
     27 H          -0.7300   -1.0031   -1.2934 H       1  UNL1        0.0620
     28 H           2.1125    0.3552    1.3976 H       1  UNL1        0.0278
     29 H           0.5959    1.3050    1.3762 H       1  UNL1        0.0278
     30 H           1.8824    1.8578    0.3220 H       1  UNL1        0.0278
     31 H           1.3308   -0.9147   -2.0712 H       1  UNL1        0.0620
     32 H           3.4181   -0.4610   -2.5165 H       1  UNL1        0.0618
     33 H           4.0034    0.9276    0.0936 H       1  UNL1        0.0620
     34 H           7.0732    0.9426    0.3185 H       1  UNL1        0.0278
     35 H           5.5555    1.8283    0.7440 H       1  UNL1        0.0278
     36 H           6.7268    2.5120   -0.4672 H       1  UNL1        0.0278
     37 H           5.9672   -0.1911   -2.9556 H       1  UNL1        0.0691
     38 H           9.2734    2.1185   -1.6987 H       1  UNL1        0.2954
     39 H          -3.1286    0.7997    3.3768 H       1  UNL1        0.0238
     40 H          -2.1880    1.5389    1.9881 H       1  UNL1        0.0238
     41 H          -3.8814    2.0781    2.3694 H       1  UNL1        0.0238
     42 H          -4.7298    0.8206   -0.3665 H       1  UNL1        0.0238
     43 H          -5.8593    0.2632    0.9173 H       1  UNL1        0.0238
     44 H          -5.0721    1.8996    1.0615 H       1  UNL1        0.0238
     45 H          -3.4288   -1.6442    2.4453 H       1  UNL1        0.0274
     46 H          -4.7888   -0.7613    3.1915 H       1  UNL1        0.0274
     47 H          -5.1113   -2.9268    1.6862 H       1  UNL1        0.0269
     48 H          -6.2490   -1.6003    1.5078 H       1  UNL1        0.0269
     49 H          -4.8632   -2.7807   -0.5002 H       1  UNL1        0.0310
     50 H          -5.6383   -1.2450   -0.7674 H       1  UNL1        0.0310
@<TRIPOS>BOND
     1     1     2    1
     2     2     3    2
     3     3     4    1
     4     4     5    2
     5     5     6    1
     6     6     7    1
     7     6     8    2
     8     8     9    1
     9     9    10    2
    10    10    11    1
    11    11    12    1
    12    11    13    2
    13    13    14    1
    14    14    15    2
    15    14    16    1
    16     3    17    1
    17    17    18    1
    18    17    19    1
    19    17    20    1
    20    20    21    1
    21    21    22    1
    22    22     2    1
    23     1    23    1
    24     1    24    1
    25     1    25    1
    26     4    26    1
    27     5    27    1
    28     7    28    1
    29     7    29    1
    30     7    30    1
    31     8    31    1
    32     9    32    1
    33    10    33    1
    34    12    34    1
    35    12    35    1
    36    12    36    1
    37    13    37    1
    38    16    38    1
    39    18    39    1
    40    18    40    1
    41    18    41    1
    42    19    42    1
    43    19    43    1
    44    19    44    1
    45    20    45    1
    46    20    46    1
    47    21    47    1
    48    21    48    1
    49    22    49    1
    50    22    50    1
