@<TRIPOS>MOLECULE
*****
 55 58 0 0 0
SMALL
GASTEIGER

@<TRIPOS>ATOM
      1 C           4.0426   -0.7748    1.7212 C.3     1  UNL1       -0.0500
      2 C           3.7720   -0.5354    0.2595 C.3     1  UNL1        0.0579
      3 C           2.4593    0.1216    0.0306 C.2     1  UNL1        0.2228
      4 O           2.4363    1.2326   -0.5409 O.2     1  UNL1       -0.2749
      5 N           1.2610   -0.5042    0.4542 N.am    1  UNL1       -0.2993
      6 C           1.3135   -1.7923    1.1104 C.3     1  UNL1        0.0035
      7 C           0.0049    0.1797    0.2177 C.3     1  UNL1        0.0439
      8 C          -0.6553    0.5807    1.5295 C.3     1  UNL1       -0.0273
      9 C          -1.8523    1.4388    1.0751 C.3     1  UNL1       -0.0103
     10 C          -2.7538    0.4513    0.4289 C.ar    1  UNL1        0.0236
     11 C          -4.1206    0.3014    0.4975 C.ar    1  UNL1       -0.0083
     12 C          -5.0212    1.1639    1.2818 C.3     1  UNL1        0.0721
     13 C          -5.1817    2.4444    0.5566 C.2     1  UNL1        0.3091
     14 O          -4.5986    2.6653   -0.5492 O.2     1  UNL1       -0.2507
     15 O          -5.9899    3.4352    1.0938 O.3     1  UNL1       -0.4804
     16 C          -4.4457   -0.7779   -0.2897 C.ar    1  UNL1        0.0038
     17 C          -5.6724   -1.3768   -0.5855 C.ar    1  UNL1       -0.0523
     18 C          -5.6894   -2.4678   -1.4233 C.ar    1  UNL1       -0.0611
     19 C          -4.5288   -2.9759   -1.9708 C.ar    1  UNL1       -0.0598
     20 C          -3.3297   -2.3922   -1.6830 C.ar    1  UNL1       -0.0376
     21 C          -3.2973   -1.2939   -0.8417 C.ar    1  UNL1        0.0496
     22 N          -2.2735   -0.5001   -0.3686 N.ar    1  UNL1       -0.3417
     23 C          -0.8687   -0.6294   -0.6653 C.3     1  UNL1        0.0422
     24 C           4.8853    0.2948   -0.2935 C.ar    1  UNL1       -0.0356
     25 C           5.1746    1.5445    0.1751 C.ar    1  UNL1       -0.0551
     26 C           6.2269    2.2592   -0.3895 C.ar    1  UNL1       -0.0262
     27 C           6.9845    1.7198   -1.4202 C.ar    1  UNL1        0.1234
     28 F           8.0174    2.4126   -1.9792 F       1  UNL1       -0.2055
     29 C           6.6796    0.4702   -1.8739 C.ar    1  UNL1       -0.0262
     30 C           5.6342   -0.2447   -1.3161 C.ar    1  UNL1       -0.0551
     31 H           3.3927   -0.1791    2.3705 H       1  UNL1        0.0240
     32 H           5.1179   -0.5170    1.9299 H       1  UNL1        0.0240
     33 H           3.9127   -1.8528    1.9684 H       1  UNL1        0.0240
     34 H           3.7191   -1.5155   -0.2518 H       1  UNL1        0.0440
     35 H           1.5389   -1.6833    2.2123 H       1  UNL1        0.0429
     36 H           2.0353   -2.4450    0.6028 H       1  UNL1        0.0429
     37 H           0.3183   -2.3114    1.0284 H       1  UNL1        0.0429
     38 H           0.2119    1.1631   -0.2913 H       1  UNL1        0.0518
     39 H           0.0593    1.1715    2.1073 H       1  UNL1        0.0287
     40 H          -1.0208   -0.3201    2.0637 H       1  UNL1        0.0287
     41 H          -2.3187    1.9470    1.9253 H       1  UNL1        0.0328
     42 H          -1.4274    2.1527    0.3339 H       1  UNL1        0.0328
     43 H          -4.5662    1.3840    2.2696 H       1  UNL1        0.0427
     44 H          -5.9869    0.6647    1.4578 H       1  UNL1        0.0427
     45 H          -5.8019    4.4108    0.8305 H       1  UNL1        0.2951
     46 H          -6.5362   -0.9469   -0.1382 H       1  UNL1        0.0624
     47 H          -6.6438   -2.9366   -1.6555 H       1  UNL1        0.0618
     48 H          -4.5908   -3.8509   -2.6363 H       1  UNL1        0.0618
     49 H          -2.3917   -2.7419   -2.0785 H       1  UNL1        0.0638
     50 H          -0.7569   -0.3135   -1.7390 H       1  UNL1        0.0510
     51 H          -0.5945   -1.7095   -0.6695 H       1  UNL1        0.0510
     52 H           4.5797    1.9441    0.9703 H       1  UNL1        0.0621
     53 H           6.4718    3.2424   -0.0371 H       1  UNL1        0.0646
     54 H           7.2623    0.0361   -2.6784 H       1  UNL1        0.0646
     55 H           5.4024   -1.2436   -1.6903 H       1  UNL1        0.0621
@<TRIPOS>BOND
     1     1     2    1
     2     2     3    1
     3     3     4    2
     4     3     5   am
     5     5     6    1
     6     5     7    1
     7     7     8    1
     8     8     9    1
     9     9    10    1
    10    10    11   ar
    11    11    12    1
    12    12    13    1
    13    13    14    2
    14    13    15    1
    15    11    16   ar
    16    16    17   ar
    17    17    18   ar
    18    18    19   ar
    19    19    20   ar
    20    20    21   ar
    21    21    22   ar
    22    22    23    1
    23     2    24    1
    24    24    25   ar
    25    25    26   ar
    26    26    27   ar
    27    27    28    1
    28    27    29   ar
    29    29    30   ar
    30    23     7    1
    31    30    24   ar
    32    22    10   ar
    33    21    16   ar
    34     1    31    1
    35     1    32    1
    36     1    33    1
    37     2    34    1
    38     6    35    1
    39     6    36    1
    40     6    37    1
    41     7    38    1
    42     8    39    1
    43     8    40    1
    44     9    41    1
    45     9    42    1
    46    12    43    1
    47    12    44    1
    48    15    45    1
    49    17    46    1
    50    18    47    1
    51    19    48    1
    52    20    49    1
    53    23    50    1
    54    23    51    1
    55    25    52    1
    56    26    53    1
    57    29    54    1
    58    30    55    1
