
     RDKit          3D

 55 58  0  0  0  0  0  0  0  0999 V2000
    4.0426   -0.7748    1.7212 C   0  0  0  0  0  0  0  0  0  0  0  0
    3.7720   -0.5354    0.2595 C   0  0  1  0  0  0  0  0  0  0  0  0
    2.4593    0.1216    0.0306 C   0  0  0  0  0  0  0  0  0  0  0  0
    2.4363    1.2326   -0.5409 O   0  0  0  0  0  0  0  0  0  0  0  0
    1.2610   -0.5042    0.4542 N   0  0  0  0  0  0  0  0  0  0  0  0
    1.3135   -1.7923    1.1104 C   0  0  0  0  0  0  0  0  0  0  0  0
    0.0049    0.1797    0.2177 C   0  0  2  0  0  0  0  0  0  0  0  0
   -0.6553    0.5807    1.5295 C   0  0  0  0  0  0  0  0  0  0  0  0
   -1.8523    1.4388    1.0751 C   0  0  0  0  0  0  0  0  0  0  0  0
   -2.7538    0.4513    0.4289 C   0  0  0  0  0  0  0  0  0  0  0  0
   -4.1206    0.3014    0.4975 C   0  0  0  0  0  0  0  0  0  0  0  0
   -5.0212    1.1639    1.2818 C   0  0  0  0  0  0  0  0  0  0  0  0
   -5.1817    2.4444    0.5566 C   0  0  0  0  0  0  0  0  0  0  0  0
   -4.5986    2.6653   -0.5492 O   0  0  0  0  0  0  0  0  0  0  0  0
   -5.9899    3.4352    1.0938 O   0  0  0  0  0  0  0  0  0  0  0  0
   -4.4457   -0.7779   -0.2897 C   0  0  0  0  0  0  0  0  0  0  0  0
   -5.6724   -1.3768   -0.5855 C   0  0  0  0  0  0  0  0  0  0  0  0
   -5.6894   -2.4678   -1.4233 C   0  0  0  0  0  0  0  0  0  0  0  0
   -4.5288   -2.9759   -1.9708 C   0  0  0  0  0  0  0  0  0  0  0  0
   -3.3297   -2.3922   -1.6830 C   0  0  0  0  0  0  0  0  0  0  0  0
   -3.2973   -1.2939   -0.8417 C   0  0  0  0  0  0  0  0  0  0  0  0
   -2.2735   -0.5001   -0.3686 N   0  0  0  0  0  0  0  0  0  0  0  0
   -0.8687   -0.6294   -0.6653 C   0  0  0  0  0  0  0  0  0  0  0  0
    4.8853    0.2948   -0.2935 C   0  0  0  0  0  0  0  0  0  0  0  0
    5.1746    1.5445    0.1751 C   0  0  0  0  0  0  0  0  0  0  0  0
    6.2269    2.2592   -0.3895 C   0  0  0  0  0  0  0  0  0  0  0  0
    6.9845    1.7198   -1.4202 C   0  0  0  0  0  0  0  0  0  0  0  0
    8.0174    2.4126   -1.9792 F   0  0  0  0  0  0  0  0  0  0  0  0
    6.6796    0.4702   -1.8739 C   0  0  0  0  0  0  0  0  0  0  0  0
    5.6342   -0.2447   -1.3161 C   0  0  0  0  0  0  0  0  0  0  0  0
    3.3927   -0.1791    2.3705 H   0  0  0  0  0  0  0  0  0  0  0  0
    5.1179   -0.5170    1.9299 H   0  0  0  0  0  0  0  0  0  0  0  0
    3.9127   -1.8528    1.9684 H   0  0  0  0  0  0  0  0  0  0  0  0
    3.7191   -1.5155   -0.2518 H   0  0  0  0  0  0  0  0  0  0  0  0
    1.5389   -1.6833    2.2123 H   0  0  0  0  0  0  0  0  0  0  0  0
    2.0353   -2.4450    0.6028 H   0  0  0  0  0  0  0  0  0  0  0  0
    0.3183   -2.3114    1.0284 H   0  0  0  0  0  0  0  0  0  0  0  0
    0.2119    1.1631   -0.2913 H   0  0  0  0  0  0  0  0  0  0  0  0
    0.0593    1.1715    2.1073 H   0  0  0  0  0  0  0  0  0  0  0  0
   -1.0208   -0.3201    2.0637 H   0  0  0  0  0  0  0  0  0  0  0  0
   -2.3187    1.9470    1.9253 H   0  0  0  0  0  0  0  0  0  0  0  0
   -1.4274    2.1527    0.3339 H   0  0  0  0  0  0  0  0  0  0  0  0
   -4.5662    1.3840    2.2696 H   0  0  0  0  0  0  0  0  0  0  0  0
   -5.9869    0.6647    1.4578 H   0  0  0  0  0  0  0  0  0  0  0  0
   -5.8019    4.4108    0.8305 H   0  0  0  0  0  0  0  0  0  0  0  0
   -6.5362   -0.9469   -0.1382 H   0  0  0  0  0  0  0  0  0  0  0  0
   -6.6438   -2.9366   -1.6555 H   0  0  0  0  0  0  0  0  0  0  0  0
   -4.5908   -3.8509   -2.6363 H   0  0  0  0  0  0  0  0  0  0  0  0
   -2.3917   -2.7419   -2.0785 H   0  0  0  0  0  0  0  0  0  0  0  0
   -0.7569   -0.3135   -1.7390 H   0  0  0  0  0  0  0  0  0  0  0  0
   -0.5945   -1.7095   -0.6695 H   0  0  0  0  0  0  0  0  0  0  0  0
    4.5797    1.9441    0.9703 H   0  0  0  0  0  0  0  0  0  0  0  0
    6.4718    3.2424   -0.0371 H   0  0  0  0  0  0  0  0  0  0  0  0
    7.2623    0.0361   -2.6784 H   0  0  0  0  0  0  0  0  0  0  0  0
    5.4024   -1.2436   -1.6903 H   0  0  0  0  0  0  0  0  0  0  0  0
  1  2  1  0
  2  3  1  0
  3  4  2  0
  3  5  1  0
  5  6  1  0
  5  7  1  0
  7  8  1  0
  8  9  1  0
  9 10  1  0
 10 11  2  0
 11 12  1  0
 12 13  1  0
 13 14  2  0
 13 15  1  0
 11 16  1  0
 16 17  2  0
 17 18  1  0
 18 19  2  0
 19 20  1  0
 20 21  2  0
 21 22  1  0
 22 23  1  0
  2 24  1  0
 24 25  2  0
 25 26  1  0
 26 27  2  0
 27 28  1  0
 27 29  1  0
 29 30  2  0
 23  7  1  0
 30 24  1  0
 22 10  1  0
 21 16  1  0
  1 31  1  0
  1 32  1  0
  1 33  1  0
  2 34  1  6
  6 35  1  0
  6 36  1  0
  6 37  1  0
  7 38  1  6
  8 39  1  0
  8 40  1  0
  9 41  1  0
  9 42  1  0
 12 43  1  0
 12 44  1  0
 15 45  1  0
 17 46  1  0
 18 47  1  0
 19 48  1  0
 20 49  1  0
 23 50  1  0
 23 51  1  0
 25 52  1  0
 26 53  1  0
 29 54  1  0
 30 55  1  0
M  END
$$$$
