@<TRIPOS>MOLECULE
*****
 51 53 0 0 0
SMALL
GASTEIGER

@<TRIPOS>ATOM
      1 C          -5.6714   -1.6506   -0.4218 C.3     1  UNL1       -0.0477
      2 C          -5.0140   -0.3060   -0.7414 C.3     1  UNL1        0.0306
      3 N          -4.2888   -0.4545   -1.9483 N.3     1  UNL1       -0.3102
      4 C          -3.2899    0.5110   -2.2168 C.3     1  UNL1        0.0107
      5 C          -2.6673    1.1434   -1.0268 C.3     1  UNL1        0.0339
      6 N          -2.8587    0.4242    0.1975 N.3     1  UNL1       -0.1619
      7 S          -2.0088   -1.0622    0.2665 S.O2    1  UNL1        0.0616
      8 O          -2.4705   -2.0387   -0.7852 O.2     1  UNL1       -0.1528
      9 O          -2.3671   -1.7025    1.6022 O.2     1  UNL1       -0.1528
     10 C          -0.2766   -0.8424    0.1538 C.ar    1  UNL1        0.1057
     11 C           0.5212   -0.6587    1.2663 C.ar    1  UNL1       -0.0319
     12 C           1.8895   -0.4854    1.1716 C.ar    1  UNL1       -0.0181
     13 C           2.5233   -0.4886   -0.0515 C.ar    1  UNL1        0.1211
     14 O           3.8983   -0.3169   -0.1814 O.3     1  UNL1       -0.4874
     15 C           4.7615   -0.1268    0.9006 C.3     1  UNL1        0.1146
     16 C           6.1594    0.0244    0.4380 C.ar    1  UNL1       -0.0104
     17 C           6.9565   -1.0882    0.3093 C.ar    1  UNL1       -0.0554
     18 C           8.2651   -0.9286   -0.1257 C.ar    1  UNL1       -0.0614
     19 C           8.7281    0.3377   -0.4160 C.ar    1  UNL1       -0.0617
     20 C           7.9295    1.4638   -0.2885 C.ar    1  UNL1       -0.0614
     21 C           6.6279    1.3005    0.1448 C.ar    1  UNL1       -0.0554
     22 C           1.7307   -0.6717   -1.1649 C.ar    1  UNL1       -0.0181
     23 C           0.3635   -0.8449   -1.0724 C.ar    1  UNL1       -0.0319
     24 C          -4.2469    0.1803    0.4298 C.3     1  UNL1        0.1247
     25 C          -4.8495    1.4265    1.0224 C.2     1  UNL1        0.2558
     26 O          -4.1441    2.4519    1.2321 O.2     1  UNL1       -0.2719
     27 N          -6.2278    1.4953    1.3663 N.am    1  UNL1       -0.1961
     28 O          -6.7678    2.6171    1.8991 O.3     1  UNL1       -0.2951
     29 H          -5.5801   -2.3544   -1.2846 H       1  UNL1        0.0245
     30 H          -6.7312   -1.5566   -0.1895 H       1  UNL1        0.0245
     31 H          -5.1275   -2.1371    0.4153 H       1  UNL1        0.0245
     32 H          -5.8764    0.4051   -0.8997 H       1  UNL1        0.0478
     33 H          -4.9218   -0.5924   -2.7436 H       1  UNL1        0.1223
     34 H          -2.4642    0.0013   -2.7955 H       1  UNL1        0.0437
     35 H          -3.6833    1.2850   -2.9341 H       1  UNL1        0.0437
     36 H          -3.1115    2.1527   -0.8945 H       1  UNL1        0.0457
     37 H          -1.5643    1.3223   -1.1314 H       1  UNL1        0.0457
     38 H           0.0124   -0.6578    2.2236 H       1  UNL1        0.0638
     39 H           2.5057   -0.3414    2.0615 H       1  UNL1        0.0655
     40 H           4.7178   -1.0420    1.5304 H       1  UNL1        0.0748
     41 H           4.4587    0.7112    1.5629 H       1  UNL1        0.0748
     42 H           6.6245   -2.0894    0.5280 H       1  UNL1        0.0621
     43 H           8.9441   -1.7553   -0.2489 H       1  UNL1        0.0618
     44 H           9.7397    0.4753   -0.7539 H       1  UNL1        0.0618
     45 H           8.3013    2.4434   -0.5174 H       1  UNL1        0.0618
     46 H           6.0152    2.1865    0.2402 H       1  UNL1        0.0621
     47 H           2.2167   -0.6765   -2.1367 H       1  UNL1        0.0655
     48 H          -0.2735   -0.9905   -1.9442 H       1  UNL1        0.0638
     49 H          -4.3079   -0.5780    1.2654 H       1  UNL1        0.0592
     50 H          -6.8218    0.6489    1.1959 H       1  UNL1        0.1822
     51 H          -6.2784    3.4303    1.6134 H       1  UNL1        0.2414
@<TRIPOS>BOND
     1     1     2    1
     2     2     3    1
     3     3     4    1
     4     4     5    1
     5     5     6    1
     6     6     7    1
     7     7     8    2
     8     7     9    2
     9     7    10    1
    10    10    11   ar
    11    11    12   ar
    12    12    13   ar
    13    13    14    1
    14    14    15    1
    15    15    16    1
    16    16    17   ar
    17    17    18   ar
    18    18    19   ar
    19    19    20   ar
    20    20    21   ar
    21    13    22   ar
    22    22    23   ar
    23     6    24    1
    24    24    25    1
    25    25    26    2
    26    25    27   am
    27    27    28    1
    28    24     2    1
    29    23    10   ar
    30    21    16   ar
    31     1    29    1
    32     1    30    1
    33     1    31    1
    34     2    32    1
    35     3    33    1
    36     4    34    1
    37     4    35    1
    38     5    36    1
    39     5    37    1
    40    11    38    1
    41    12    39    1
    42    15    40    1
    43    15    41    1
    44    17    42    1
    45    18    43    1
    46    19    44    1
    47    20    45    1
    48    21    46    1
    49    22    47    1
    50    23    48    1
    51    24    49    1
    52    27    50    1
    53    28    51    1
