
     RDKit          3D

 51 53  0  0  0  0  0  0  0  0999 V2000
   -5.6714   -1.6506   -0.4218 C   0  0  0  0  0  0  0  0  0  0  0  0
   -5.0140   -0.3060   -0.7414 C   0  0  2  0  0  0  0  0  0  0  0  0
   -4.2888   -0.4545   -1.9483 N   0  0  0  0  0  0  0  0  0  0  0  0
   -3.2899    0.5110   -2.2168 C   0  0  0  0  0  0  0  0  0  0  0  0
   -2.6673    1.1434   -1.0268 C   0  0  0  0  0  0  0  0  0  0  0  0
   -2.8587    0.4242    0.1975 N   0  0  0  0  0  0  0  0  0  0  0  0
   -2.0088   -1.0622    0.2665 S   0  0  0  0  0  6  0  0  0  0  0  0
   -2.4705   -2.0387   -0.7852 O   0  0  0  0  0  0  0  0  0  0  0  0
   -2.3671   -1.7025    1.6022 O   0  0  0  0  0  0  0  0  0  0  0  0
   -0.2766   -0.8424    0.1538 C   0  0  0  0  0  0  0  0  0  0  0  0
    0.5212   -0.6587    1.2663 C   0  0  0  0  0  0  0  0  0  0  0  0
    1.8895   -0.4854    1.1716 C   0  0  0  0  0  0  0  0  0  0  0  0
    2.5233   -0.4886   -0.0515 C   0  0  0  0  0  0  0  0  0  0  0  0
    3.8983   -0.3169   -0.1814 O   0  0  0  0  0  0  0  0  0  0  0  0
    4.7615   -0.1268    0.9006 C   0  0  0  0  0  0  0  0  0  0  0  0
    6.1594    0.0244    0.4380 C   0  0  0  0  0  0  0  0  0  0  0  0
    6.9565   -1.0882    0.3093 C   0  0  0  0  0  0  0  0  0  0  0  0
    8.2651   -0.9286   -0.1257 C   0  0  0  0  0  0  0  0  0  0  0  0
    8.7281    0.3377   -0.4160 C   0  0  0  0  0  0  0  0  0  0  0  0
    7.9295    1.4638   -0.2885 C   0  0  0  0  0  0  0  0  0  0  0  0
    6.6279    1.3005    0.1448 C   0  0  0  0  0  0  0  0  0  0  0  0
    1.7307   -0.6717   -1.1649 C   0  0  0  0  0  0  0  0  0  0  0  0
    0.3635   -0.8449   -1.0724 C   0  0  0  0  0  0  0  0  0  0  0  0
   -4.2469    0.1803    0.4298 C   0  0  1  0  0  0  0  0  0  0  0  0
   -4.8495    1.4265    1.0224 C   0  0  0  0  0  0  0  0  0  0  0  0
   -4.1441    2.4519    1.2321 O   0  0  0  0  0  0  0  0  0  0  0  0
   -6.2278    1.4953    1.3663 N   0  0  0  0  0  0  0  0  0  0  0  0
   -6.7678    2.6171    1.8991 O   0  0  0  0  0  0  0  0  0  0  0  0
   -5.5801   -2.3544   -1.2846 H   0  0  0  0  0  0  0  0  0  0  0  0
   -6.7312   -1.5566   -0.1895 H   0  0  0  0  0  0  0  0  0  0  0  0
   -5.1275   -2.1371    0.4153 H   0  0  0  0  0  0  0  0  0  0  0  0
   -5.8764    0.4051   -0.8997 H   0  0  0  0  0  0  0  0  0  0  0  0
   -4.9218   -0.5924   -2.7436 H   0  0  0  0  0  0  0  0  0  0  0  0
   -2.4642    0.0013   -2.7955 H   0  0  0  0  0  0  0  0  0  0  0  0
   -3.6833    1.2850   -2.9341 H   0  0  0  0  0  0  0  0  0  0  0  0
   -3.1115    2.1527   -0.8945 H   0  0  0  0  0  0  0  0  0  0  0  0
   -1.5643    1.3223   -1.1314 H   0  0  0  0  0  0  0  0  0  0  0  0
    0.0124   -0.6578    2.2236 H   0  0  0  0  0  0  0  0  0  0  0  0
    2.5057   -0.3414    2.0615 H   0  0  0  0  0  0  0  0  0  0  0  0
    4.7178   -1.0420    1.5304 H   0  0  0  0  0  0  0  0  0  0  0  0
    4.4587    0.7112    1.5629 H   0  0  0  0  0  0  0  0  0  0  0  0
    6.6245   -2.0894    0.5280 H   0  0  0  0  0  0  0  0  0  0  0  0
    8.9441   -1.7553   -0.2489 H   0  0  0  0  0  0  0  0  0  0  0  0
    9.7397    0.4753   -0.7539 H   0  0  0  0  0  0  0  0  0  0  0  0
    8.3013    2.4434   -0.5174 H   0  0  0  0  0  0  0  0  0  0  0  0
    6.0152    2.1865    0.2402 H   0  0  0  0  0  0  0  0  0  0  0  0
    2.2167   -0.6765   -2.1367 H   0  0  0  0  0  0  0  0  0  0  0  0
   -0.2735   -0.9905   -1.9442 H   0  0  0  0  0  0  0  0  0  0  0  0
   -4.3079   -0.5780    1.2654 H   0  0  0  0  0  0  0  0  0  0  0  0
   -6.8218    0.6489    1.1959 H   0  0  0  0  0  0  0  0  0  0  0  0
   -6.2784    3.4303    1.6134 H   0  0  0  0  0  0  0  0  0  0  0  0
  1  2  1  0
  2  3  1  0
  3  4  1  0
  4  5  1  0
  5  6  1  0
  6  7  1  0
  7  8  2  0
  7  9  2  0
  7 10  1  0
 10 11  2  0
 11 12  1  0
 12 13  2  0
 13 14  1  0
 14 15  1  0
 15 16  1  0
 16 17  2  0
 17 18  1  0
 18 19  2  0
 19 20  1  0
 20 21  2  0
 13 22  1  0
 22 23  2  0
  6 24  1  0
 24 25  1  0
 25 26  2  0
 25 27  1  0
 27 28  1  0
 24  2  1  0
 23 10  1  0
 21 16  1  0
  1 29  1  0
  1 30  1  0
  1 31  1  0
  2 32  1  6
  3 33  1  0
  4 34  1  0
  4 35  1  0
  5 36  1  0
  5 37  1  0
 11 38  1  0
 12 39  1  0
 15 40  1  0
 15 41  1  0
 17 42  1  0
 18 43  1  0
 19 44  1  0
 20 45  1  0
 21 46  1  0
 22 47  1  0
 23 48  1  0
 24 49  1  1
 27 50  1  0
 28 51  1  0
M  END
$$$$
