@<TRIPOS>MOLECULE
*****
 69 71 0 0 0
SMALL
GASTEIGER

@<TRIPOS>ATOM
      1 C          -8.3458   -2.1485    3.1998 C.3     1  UNL1       -0.0397
      2 C          -6.9409   -1.6749    2.9454 C.ar    1  UNL1       -0.0498
      3 C          -6.5630   -0.3797    3.2225 C.ar    1  UNL1       -0.0541
      4 C          -5.2553    0.0652    2.9866 C.ar    1  UNL1       -0.0287
      5 C          -4.8802    1.4497    3.2910 C.3     1  UNL1       -0.0379
      6 C          -4.3230   -0.7911    2.4713 C.ar    1  UNL1        0.0406
      7 N          -2.9920   -0.3633    2.2240 N.am    1  UNL1       -0.2687
      8 C          -2.6017    0.1947    0.9623 C.2     1  UNL1        0.3081
      9 O          -3.4865    0.2788    0.1095 O.2     1  UNL1       -0.2522
     10 N          -1.2695    0.6229    0.7180 N.am    1  UNL1       -0.2685
     11 C          -0.7986    1.1976   -0.4844 C.ar    1  UNL1        0.0475
     12 C          -1.7316    1.8292   -1.3158 C.ar    1  UNL1       -0.0320
     13 C          -1.3200    2.3907   -2.5040 C.ar    1  UNL1       -0.0161
     14 C          -2.2486    3.0221   -3.3375 C.ar    1  UNL1       -0.0540
     15 C          -1.8999    3.6024   -4.5371 C.ar    1  UNL1       -0.0612
     16 C          -0.5675    3.5339   -4.8911 C.ar    1  UNL1       -0.0612
     17 C           0.3554    2.9169   -4.0826 C.ar    1  UNL1       -0.0540
     18 C          -0.0133    2.3428   -2.8870 C.ar    1  UNL1       -0.0171
     19 C           0.8815    1.7171   -2.0530 C.ar    1  UNL1       -0.0401
     20 C           0.5268    1.1260   -0.8324 C.ar    1  UNL1        0.0585
     21 C           1.5274    0.4459   -0.0298 C.2     1  UNL1        0.2466
     22 O           1.2410   -0.2023    1.0068 O.2     1  UNL1       -0.2701
     23 N           2.9277    0.4443   -0.3323 N.am    1  UNL1       -0.2963
     24 CA          3.8988   -0.2513    0.5004 C.3     1  UNL1        0.1466
     25 C           4.7919    0.7836    1.0839 C.2     1  UNL1        0.3278
     26 O           5.7498    0.5038    1.8630 O.2     1  UNL1       -0.2488
     27 OXT         4.6328    2.1463    0.8095 O.3     1  UNL1       -0.4793
     28 C           4.6843   -1.2815   -0.2383 C.3     1  UNL1        0.0849
     29 C           3.7646   -2.4205   -0.6558 C.3     1  UNL1       -0.0364
     30 O           5.4242   -0.8083   -1.2937 O.3     1  UNL1       -0.3718
     31 C           6.8050   -1.0162   -1.1209 C.3     1  UNL1        0.0535
     32 C           7.5256    0.2842   -1.3197 C.3     1  UNL1       -0.0389
     33 C           7.3160   -1.9904   -2.1907 C.3     1  UNL1       -0.0389
     34 C          -4.6753   -2.0895    2.1862 C.ar    1  UNL1       -0.0287
     35 C          -3.6906   -3.0261    1.6328 C.3     1  UNL1       -0.0379
     36 C          -5.9862   -2.5229    2.4262 C.ar    1  UNL1       -0.0541
     37 H          -8.3879   -3.2471    3.0540 H       1  UNL1        0.0278
     38 H          -8.6368   -1.8811    4.2344 H       1  UNL1        0.0278
     39 H          -8.9719   -1.6879    2.4219 H       1  UNL1        0.0278
     40 H          -7.3147    0.2814    3.6301 H       1  UNL1        0.0623
     41 H          -4.5452    1.9976    2.3850 H       1  UNL1        0.0278
     42 H          -4.1099    1.4667    4.0937 H       1  UNL1        0.0278
     43 H          -5.7514    1.9878    3.6847 H       1  UNL1        0.0278
     44 H          -2.2579   -0.4432    2.9577 H       1  UNL1        0.1564
     45 H          -0.6384    0.4951    1.5684 H       1  UNL1        0.1564
     46 H          -2.7777    1.9269   -1.0837 H       1  UNL1        0.0642
     47 H          -3.2806    3.0453   -3.0086 H       1  UNL1        0.0624
     48 H          -2.6091    4.0865   -5.1767 H       1  UNL1        0.0618
     49 H          -0.2519    3.9853   -5.8404 H       1  UNL1        0.0618
     50 H           1.3792    2.8790   -4.3824 H       1  UNL1        0.0624
     51 H           1.9087    1.6736   -2.3459 H       1  UNL1        0.0632
     52 H           3.2565    0.9525   -1.1625 H       1  UNL1        0.1499
     53 HA          3.4095   -0.7545    1.3598 H       1  UNL1        0.0641
     54 HXT         5.3648    2.8233    1.0167 H       1  UNL1        0.2951
     55 H           5.4026   -1.7224    0.5003 H       1  UNL1        0.0617
     56 H           3.2657   -2.8758    0.2151 H       1  UNL1        0.0255
     57 H           4.3250   -3.2225   -1.1787 H       1  UNL1        0.0255
     58 H           3.0028   -2.0455   -1.3808 H       1  UNL1        0.0255
     59 H           6.9704   -1.5102   -0.1650 H       1  UNL1        0.0590
     60 H           6.9053    0.8804   -2.0498 H       1  UNL1        0.0254
     61 H           7.6026    0.8125   -0.3479 H       1  UNL1        0.0254
     62 H           8.5547    0.1494   -1.7186 H       1  UNL1        0.0254
     63 H           6.7371   -1.8930   -3.1234 H       1  UNL1        0.0254
     64 H           8.3730   -1.7236   -2.3724 H       1  UNL1        0.0254
     65 H           7.3137   -3.0342   -1.7930 H       1  UNL1        0.0254
     66 H          -4.2355   -3.8563    1.0991 H       1  UNL1        0.0278
     67 H          -3.1604   -2.4808    0.8012 H       1  UNL1        0.0278
     68 H          -3.0066   -3.4611    2.3599 H       1  UNL1        0.0278
     69 H          -6.2988   -3.5358    2.2147 H       1  UNL1        0.0623
@<TRIPOS>BOND
     1     1     2    1
     2     2     3   ar
     3     3     4   ar
     4     4     5    1
     5     4     6   ar
     6     6     7    1
     7     7     8   am
     8     8     9    2
     9     8    10   am
    10    10    11    1
    11    11    12   ar
    12    12    13   ar
    13    13    14   ar
    14    14    15   ar
    15    15    16   ar
    16    16    17   ar
    17    17    18   ar
    18    18    19   ar
    19    19    20   ar
    20    20    21    1
    21    21    22    2
    22    21    23   am
    23    23    24    1
    24    24    25    1
    25    25    26    2
    26    25    27    1
    27    24    28    1
    28    28    29    1
    29    28    30    1
    30    30    31    1
    31    31    32    1
    32    31    33    1
    33     6    34   ar
    34    34    35    1
    35    34    36   ar
    36    36     2   ar
    37    20    11   ar
    38    18    13   ar
    39     1    37    1
    40     1    38    1
    41     1    39    1
    42     3    40    1
    43     5    41    1
    44     5    42    1
    45     5    43    1
    46     7    44    1
    47    10    45    1
    48    12    46    1
    49    14    47    1
    50    15    48    1
    51    16    49    1
    52    17    50    1
    53    19    51    1
    54    23    52    1
    55    24    53    1
    56    27    54    1
    57    28    55    1
    58    29    56    1
    59    29    57    1
    60    29    58    1
    61    31    59    1
    62    32    60    1
    63    32    61    1
    64    32    62    1
    65    33    63    1
    66    33    64    1
    67    33    65    1
    68    35    66    1
    69    35    67    1
    70    35    68    1
    71    36    69    1
