@<TRIPOS>MOLECULE
*****
 43 46 0 0 0
SMALL
GASTEIGER

@<TRIPOS>ATOM
      1 O          -0.9136   -1.9936   -1.9260 O.2     1  UNL1       -0.2697
      2 C          -1.5726   -1.6064   -0.9144 C.2     1  UNL1        0.2523
      3 N          -1.7817   -2.5189    0.1835 N.am    1  UNL1       -0.2483
      4 C          -2.5161   -2.0921    1.3143 C.2     1  UNL1        0.2511
      5 O          -2.6799   -2.9222    2.2609 O.2     1  UNL1       -0.2698
      6 C          -3.0531   -0.7400    1.3606 C.ar    1  UNL1        0.0451
      7 C          -3.7571   -0.4004    2.4970 C.ar    1  UNL1       -0.0481
      8 C          -4.2735    0.8768    2.5588 C.ar    1  UNL1       -0.0479
      9 C          -4.0946    1.7760    1.5305 C.ar    1  UNL1        0.0140
     10 I          -4.8826    3.7345    1.6178 I       1  UNL1       -0.0438
     11 C          -3.3758    1.4047    0.3888 C.ar    1  UNL1       -0.0400
     12 C          -2.8568    0.1543    0.3016 C.ar    1  UNL1        0.0014
     13 C          -2.1039   -0.2456   -0.8858 C.2     1  UNL1        0.0584
     14 C          -1.9043    0.5758   -1.8965 C.2     1  UNL1        0.0025
     15 N          -1.1511    0.1297   -3.0501 N.pl3   1  UNL1       -0.3449
     16 C           0.1179    0.7607   -3.3624 C.3     1  UNL1        0.0340
     17 C           1.0288    0.5938   -2.2270 C.ar    1  UNL1       -0.0269
     18 C           1.0289    1.5491   -1.2042 C.ar    1  UNL1       -0.0563
     19 C           1.8717    1.4371   -0.1240 C.ar    1  UNL1       -0.0501
     20 C           2.7511    0.3874    0.0043 C.ar    1  UNL1        0.0266
     21 C           3.6606    0.2516    1.1541 C.ar    1  UNL1        0.0233
     22 C           3.3980    0.4135    2.4788 C.ar    1  UNL1       -0.0161
     23 C           4.5792    0.1762    3.1488 C.ar    1  UNL1        0.0923
     24 O           5.5026   -0.1139    2.2595 O.2     1  UNL1       -0.4704
     25 C           4.9947   -0.0799    1.0519 C.ar    1  UNL1        0.0995
     26 C           2.7490   -0.5525   -1.0049 C.ar    1  UNL1        0.1249
     27 O           3.6447   -1.6307   -0.8839 O.3     1  UNL1       -0.5061
     28 C           1.9104   -0.4540   -2.0935 C.ar    1  UNL1       -0.0149
     29 H          -1.3768   -3.4891    0.1117 H       1  UNL1        0.1581
     30 H          -3.9116   -1.0876    3.3180 H       1  UNL1        0.0626
     31 H          -4.8366    1.1934    3.4338 H       1  UNL1        0.0628
     32 H          -3.2568    2.1410   -0.3988 H       1  UNL1        0.0634
     33 H          -2.2766    1.5843   -1.9178 H       1  UNL1        0.0786
     34 H          -1.5800   -0.6333   -3.6140 H       1  UNL1        0.1459
     35 H          -0.0636    1.8517   -3.5093 H       1  UNL1        0.0511
     36 H           0.5889    0.3438   -4.2523 H       1  UNL1        0.0511
     37 H           0.3400    2.4061   -1.2676 H       1  UNL1        0.0621
     38 H           1.8799    2.1787    0.6816 H       1  UNL1        0.0625
     39 H           2.4419    0.6761    2.8892 H       1  UNL1        0.0655
     40 H           4.7519    0.2133    4.2168 H       1  UNL1        0.1029
     41 H           5.5127   -0.2744    0.1245 H       1  UNL1        0.1035
     42 H           3.5472   -2.4650   -1.4620 H       1  UNL1        0.2922
     43 H           1.9189   -1.2118   -2.8928 H       1  UNL1        0.0657
@<TRIPOS>BOND
     1     1     2    2
     2     2     3   am
     3     3     4   am
     4     4     5    2
     5     4     6    1
     6     6     7   ar
     7     7     8   ar
     8     8     9   ar
     9     9    10    1
    10     9    11   ar
    11    11    12   ar
    12    12    13    1
    13    13    14    2
    14    14    15    1
    15    15    16    1
    16    16    17    1
    17    17    18   ar
    18    18    19   ar
    19    19    20   ar
    20    20    21    1
    21    21    22   ar
    22    22    23   ar
    23    23    24   ar
    24    24    25   ar
    25    20    26   ar
    26    26    27    1
    27    26    28   ar
    28    13     2    1
    29    28    17   ar
    30    12     6   ar
    31    25    21   ar
    32     3    29    1
    33     7    30    1
    34     8    31    1
    35    11    32    1
    36    14    33    1
    37    15    34    1
    38    16    35    1
    39    16    36    1
    40    18    37    1
    41    19    38    1
    42    22    39    1
    43    23    40    1
    44    25    41    1
    45    27    42    1
    46    28    43    1
