
     RDKit          3D

 43 46  0  0  0  0  0  0  0  0999 V2000
   -0.9136   -1.9936   -1.9260 O   0  0  0  0  0  0  0  0  0  0  0  0
   -1.5726   -1.6064   -0.9144 C   0  0  0  0  0  0  0  0  0  0  0  0
   -1.7817   -2.5189    0.1835 N   0  0  0  0  0  0  0  0  0  0  0  0
   -2.5161   -2.0921    1.3143 C   0  0  0  0  0  0  0  0  0  0  0  0
   -2.6799   -2.9222    2.2609 O   0  0  0  0  0  0  0  0  0  0  0  0
   -3.0531   -0.7400    1.3606 C   0  0  0  0  0  0  0  0  0  0  0  0
   -3.7571   -0.4004    2.4970 C   0  0  0  0  0  0  0  0  0  0  0  0
   -4.2735    0.8768    2.5588 C   0  0  0  0  0  0  0  0  0  0  0  0
   -4.0946    1.7760    1.5305 C   0  0  0  0  0  0  0  0  0  0  0  0
   -4.8826    3.7345    1.6178 I   0  0  0  0  0  0  0  0  0  0  0  0
   -3.3758    1.4047    0.3888 C   0  0  0  0  0  0  0  0  0  0  0  0
   -2.8568    0.1543    0.3016 C   0  0  0  0  0  0  0  0  0  0  0  0
   -2.1039   -0.2456   -0.8858 C   0  0  0  0  0  0  0  0  0  0  0  0
   -1.9043    0.5758   -1.8965 C   0  0  0  0  0  0  0  0  0  0  0  0
   -1.1511    0.1297   -3.0501 N   0  0  0  0  0  0  0  0  0  0  0  0
    0.1179    0.7607   -3.3624 C   0  0  0  0  0  0  0  0  0  0  0  0
    1.0288    0.5938   -2.2270 C   0  0  0  0  0  0  0  0  0  0  0  0
    1.0289    1.5491   -1.2042 C   0  0  0  0  0  0  0  0  0  0  0  0
    1.8717    1.4371   -0.1240 C   0  0  0  0  0  0  0  0  0  0  0  0
    2.7511    0.3874    0.0043 C   0  0  0  0  0  0  0  0  0  0  0  0
    3.6606    0.2516    1.1541 C   0  0  0  0  0  0  0  0  0  0  0  0
    3.3980    0.4135    2.4788 C   0  0  0  0  0  0  0  0  0  0  0  0
    4.5792    0.1762    3.1488 C   0  0  0  0  0  0  0  0  0  0  0  0
    5.5026   -0.1139    2.2595 O   0  0  0  0  0  0  0  0  0  0  0  0
    4.9947   -0.0799    1.0519 C   0  0  0  0  0  0  0  0  0  0  0  0
    2.7490   -0.5525   -1.0049 C   0  0  0  0  0  0  0  0  0  0  0  0
    3.6447   -1.6307   -0.8839 O   0  0  0  0  0  0  0  0  0  0  0  0
    1.9104   -0.4540   -2.0935 C   0  0  0  0  0  0  0  0  0  0  0  0
   -1.3768   -3.4891    0.1117 H   0  0  0  0  0  0  0  0  0  0  0  0
   -3.9116   -1.0876    3.3180 H   0  0  0  0  0  0  0  0  0  0  0  0
   -4.8366    1.1934    3.4338 H   0  0  0  0  0  0  0  0  0  0  0  0
   -3.2568    2.1410   -0.3988 H   0  0  0  0  0  0  0  0  0  0  0  0
   -2.2766    1.5843   -1.9178 H   0  0  0  0  0  0  0  0  0  0  0  0
   -1.5800   -0.6333   -3.6140 H   0  0  0  0  0  0  0  0  0  0  0  0
   -0.0636    1.8517   -3.5093 H   0  0  0  0  0  0  0  0  0  0  0  0
    0.5889    0.3438   -4.2523 H   0  0  0  0  0  0  0  0  0  0  0  0
    0.3400    2.4061   -1.2676 H   0  0  0  0  0  0  0  0  0  0  0  0
    1.8799    2.1787    0.6816 H   0  0  0  0  0  0  0  0  0  0  0  0
    2.4419    0.6761    2.8892 H   0  0  0  0  0  0  0  0  0  0  0  0
    4.7519    0.2133    4.2168 H   0  0  0  0  0  0  0  0  0  0  0  0
    5.5127   -0.2744    0.1245 H   0  0  0  0  0  0  0  0  0  0  0  0
    3.5472   -2.4650   -1.4620 H   0  0  0  0  0  0  0  0  0  0  0  0
    1.9189   -1.2118   -2.8928 H   0  0  0  0  0  0  0  0  0  0  0  0
  1  2  2  0
  2  3  1  0
  3  4  1  0
  4  5  2  0
  4  6  1  0
  6  7  2  0
  7  8  1  0
  8  9  2  0
  9 10  1  0
  9 11  1  0
 11 12  2  0
 12 13  1  0
 13 14  2  3
 14 15  1  0
 15 16  1  0
 16 17  1  0
 17 18  2  0
 18 19  1  0
 19 20  2  0
 20 21  1  0
 21 22  1  0
 22 23  2  0
 23 24  1  0
 24 25  1  0
 20 26  1  0
 26 27  1  0
 26 28  2  0
 13  2  1  0
 28 17  1  0
 12  6  1  0
 25 21  2  0
  3 29  1  0
  7 30  1  0
  8 31  1  0
 11 32  1  0
 14 33  1  0
 15 34  1  0
 16 35  1  0
 16 36  1  0
 18 37  1  0
 19 38  1  0
 22 39  1  0
 23 40  1  0
 25 41  1  0
 27 42  1  0
 28 43  1  0
M  END
$$$$
