
     RDKit          3D

 48 52  0  0  0  0  0  0  0  0999 V2000
    1.4641   -1.9243   -3.0732 C   0  0  0  0  0  0  0  0  0  0  0  0
    1.1489   -0.4397   -2.8014 C   0  0  2  0  0  0  0  0  0  0  0  0
    2.4091    0.1598   -2.3418 C   0  0  0  0  0  0  0  0  0  0  0  0
    3.4472    0.7617   -2.9776 N   0  0  0  0  0  0  0  0  0  0  0  0
    4.3367    1.0919   -2.0703 N   0  0  0  0  0  0  0  0  0  0  0  0
    3.9176    0.7259   -0.8541 C   0  0  0  0  0  0  0  0  0  0  0  0
    4.6857    0.9359    0.4087 C   0  0  0  0  0  0  0  0  0  0  0  0
    4.3607    1.9575    1.3194 C   0  0  0  0  0  0  0  0  0  0  0  0
    5.6399    1.7031    2.6438 S   0  0  0  0  0  0  0  0  0  0  0  0
    6.3868    0.2370    1.7012 C   0  0  0  0  0  0  0  0  0  0  0  0
    7.5724   -0.3735    2.4449 C   0  0  0  0  0  0  0  0  0  0  0  0
    8.7612    0.1129    1.8999 F   0  0  0  0  0  0  0  0  0  0  0  0
    7.4663   -0.1909    3.7830 F   0  0  0  0  0  0  0  0  0  0  0  0
    7.5280   -1.7118    2.0805 F   0  0  0  0  0  0  0  0  0  0  0  0
    5.7223    0.2131    0.8092 N   0  0  0  0  0  0  0  0  0  0  0  0
    2.7268    0.1537   -1.0396 N   0  0  0  0  0  0  0  0  0  0  0  0
    1.8280   -0.4030   -0.0364 C   0  0  0  0  0  0  0  0  0  0  0  0
    0.3930   -0.1336   -0.4160 C   0  0  0  0  0  0  0  0  0  0  0  0
    0.1277   -0.3158   -1.8021 N   0  0  0  0  0  0  0  0  0  0  0  0
   -1.2277   -0.3947   -2.2847 C   0  0  0  0  0  0  0  0  0  0  0  0
   -1.4214   -0.5542   -3.5048 O   0  0  0  0  0  0  0  0  0  0  0  0
   -2.3087   -0.2876   -1.3514 C   0  0  0  0  0  0  0  0  0  0  0  0
   -3.1002    0.8613   -1.3714 C   0  0  0  0  0  0  0  0  0  0  0  0
   -4.1782    1.0143   -0.4949 C   0  0  0  0  0  0  0  0  0  0  0  0
   -4.4718    0.0223    0.4064 C   0  0  0  0  0  0  0  0  0  0  0  0
   -5.6232    0.1695    1.3274 C   0  0  0  0  0  0  0  0  0  0  0  0
   -6.5117    1.1717    1.4114 C   0  0  0  0  0  0  0  0  0  0  0  0
   -7.5005    1.1195    2.3102 C   0  0  0  0  0  0  0  0  0  0  0  0
   -7.5652    0.0154    3.1276 C   0  0  0  0  0  0  0  0  0  0  0  0
   -6.1339   -0.9522    2.5460 S   0  0  0  0  0  0  0  0  0  0  0  0
   -3.6968   -1.1112    0.4325 C   0  0  0  0  0  0  0  0  0  0  0  0
   -2.6191   -1.2609   -0.4468 C   0  0  0  0  0  0  0  0  0  0  0  0
    0.9868   -2.2338   -4.0305 H   0  0  0  0  0  0  0  0  0  0  0  0
    2.5520   -2.0615   -3.2323 H   0  0  0  0  0  0  0  0  0  0  0  0
    1.1668   -2.5595   -2.2171 H   0  0  0  0  0  0  0  0  0  0  0  0
    0.8139    0.0025   -3.7772 H   0  0  0  0  0  0  0  0  0  0  0  0
    3.6221    2.7060    1.3380 H   0  0  0  0  0  0  0  0  0  0  0  0
    1.9893    0.0244    0.9710 H   0  0  0  0  0  0  0  0  0  0  0  0
    2.0481   -1.4829    0.0286 H   0  0  0  0  0  0  0  0  0  0  0  0
    0.0782    0.8915   -0.1187 H   0  0  0  0  0  0  0  0  0  0  0  0
   -0.2274   -0.8271    0.1741 H   0  0  0  0  0  0  0  0  0  0  0  0
   -2.8548    1.6321   -2.0885 H   0  0  0  0  0  0  0  0  0  0  0  0
   -4.7629    1.9017   -0.5361 H   0  0  0  0  0  0  0  0  0  0  0  0
   -6.4084    2.0505    0.7148 H   0  0  0  0  0  0  0  0  0  0  0  0
   -8.2809    1.9276    2.4309 H   0  0  0  0  0  0  0  0  0  0  0  0
   -8.2523   -0.2951    3.9401 H   0  0  0  0  0  0  0  0  0  0  0  0
   -3.9560   -1.8788    1.1626 H   0  0  0  0  0  0  0  0  0  0  0  0
   -2.0786   -2.1707   -0.3633 H   0  0  0  0  0  0  0  0  0  0  0  0
  1  2  1  0
  2  3  1  0
  3  4  2  0
  4  5  1  0
  5  6  2  0
  6  7  1  0
  7  8  2  0
  8  9  1  0
  9 10  1  0
 10 11  1  0
 11 12  1  0
 11 13  1  0
 11 14  1  0
 10 15  2  0
  6 16  1  0
 16 17  1  0
 17 18  1  0
 18 19  1  0
 19 20  1  0
 20 21  2  0
 20 22  1  0
 22 23  2  0
 23 24  1  0
 24 25  2  0
 25 26  1  0
 26 27  2  0
 27 28  1  0
 28 29  2  0
 29 30  1  0
 25 31  1  0
 31 32  2  0
 19  2  1  0
 32 22  1  0
 16  3  1  0
 30 26  1  0
 15  7  1  0
  1 33  1  0
  1 34  1  0
  1 35  1  0
  2 36  1  6
  8 37  1  0
 17 38  1  0
 17 39  1  0
 18 40  1  0
 18 41  1  0
 23 42  1  0
 24 43  1  0
 27 44  1  0
 28 45  1  0
 29 46  1  0
 31 47  1  0
 32 48  1  0
M  END
$$$$
