@<TRIPOS>MOLECULE
*****
 48 52 0 0 0
SMALL
GASTEIGER

@<TRIPOS>ATOM
      1 C           1.4641   -1.9243   -3.0732 C.3     1  UNL1       -0.0393
      2 C           1.1489   -0.4397   -2.8014 C.3     1  UNL1        0.0834
      3 C           2.4091    0.1598   -2.3418 C.ar    1  UNL1        0.1542
      4 N           3.4472    0.7617   -2.9776 N.ar    1  UNL1       -0.1320
      5 N           4.3367    1.0919   -2.0703 N.ar    1  UNL1       -0.1275
      6 C           3.9176    0.7259   -0.8541 C.ar    1  UNL1        0.1832
      7 C           4.6857    0.9359    0.4087 C.ar    1  UNL1        0.1157
      8 C           4.3607    1.9575    1.3194 C.ar    1  UNL1        0.0067
      9 S           5.6399    1.7031    2.6438 S.2     1  UNL1       -0.0711
     10 C           6.3868    0.2370    1.7012 C.ar    1  UNL1        0.1819
     11 C           7.5724   -0.3735    2.4449 C.3     1  UNL1        0.4407
     12 F           8.7612    0.1129    1.8999 F       1  UNL1       -0.1640
     13 F           7.4663   -0.1909    3.7830 F       1  UNL1       -0.1640
     14 F           7.5280   -1.7118    2.0805 F       1  UNL1       -0.1640
     15 N           5.7223    0.2131    0.8092 N.ar    1  UNL1       -0.2321
     16 N           2.7268    0.1537   -1.0396 N.ar    1  UNL1       -0.3066
     17 C           1.8280   -0.4030   -0.0364 C.3     1  UNL1        0.0423
     18 C           0.3930   -0.1336   -0.4160 C.3     1  UNL1        0.0338
     19 N           0.1277   -0.3158   -1.8021 N.am    1  UNL1       -0.2860
     20 C          -1.2277   -0.3947   -2.2847 C.2     1  UNL1        0.2472
     21 O          -1.4214   -0.5542   -3.5048 O.2     1  UNL1       -0.2700
     22 C          -2.3087   -0.2876   -1.3514 C.ar    1  UNL1        0.0370
     23 C          -3.1002    0.8613   -1.3714 C.ar    1  UNL1       -0.0490
     24 C          -4.1782    1.0143   -0.4949 C.ar    1  UNL1       -0.0528
     25 C          -4.4718    0.0223    0.4064 C.ar    1  UNL1       -0.0113
     26 C          -5.6232    0.1695    1.3274 C.ar    1  UNL1        0.0193
     27 C          -6.5117    1.1717    1.4114 C.ar    1  UNL1       -0.0469
     28 C          -7.5005    1.1195    2.3102 C.ar    1  UNL1       -0.0541
     29 C          -7.5652    0.0154    3.1276 C.ar    1  UNL1       -0.0237
     30 S          -6.1339   -0.9522    2.5460 S.2     1  UNL1       -0.0967
     31 C          -3.6968   -1.1112    0.4325 C.ar    1  UNL1       -0.0528
     32 C          -2.6191   -1.2609   -0.4468 C.ar    1  UNL1       -0.0490
     33 H           0.9868   -2.2338   -4.0305 H       1  UNL1        0.0252
     34 H           2.5520   -2.0615   -3.2323 H       1  UNL1        0.0252
     35 H           1.1668   -2.5595   -2.2171 H       1  UNL1        0.0252
     36 H           0.8139    0.0025   -3.7772 H       1  UNL1        0.0579
     37 H           3.6221    2.7060    1.3380 H       1  UNL1        0.0716
     38 H           1.9893    0.0244    0.9710 H       1  UNL1        0.0508
     39 H           2.0481   -1.4829    0.0286 H       1  UNL1        0.0508
     40 H           0.0782    0.8915   -0.1187 H       1  UNL1        0.0482
     41 H          -0.2274   -0.8271    0.1741 H       1  UNL1        0.0482
     42 H          -2.8548    1.6321   -2.0885 H       1  UNL1        0.0625
     43 H          -4.7629    1.9017   -0.5361 H       1  UNL1        0.0624
     44 H          -6.4084    2.0505    0.7148 H       1  UNL1        0.0629
     45 H          -8.2809    1.9276    2.4309 H       1  UNL1        0.0623
     46 H          -8.2523   -0.2951    3.9401 H       1  UNL1        0.0693
     47 H          -3.9560   -1.8788    1.1626 H       1  UNL1        0.0624
     48 H          -2.0786   -2.1707   -0.3633 H       1  UNL1        0.0625
@<TRIPOS>BOND
     1     1     2    1
     2     2     3    1
     3     3     4   ar
     4     4     5   ar
     5     5     6   ar
     6     6     7    1
     7     7     8   ar
     8     8     9   ar
     9     9    10   ar
    10    10    11    1
    11    11    12    1
    12    11    13    1
    13    11    14    1
    14    10    15   ar
    15     6    16   ar
    16    16    17    1
    17    17    18    1
    18    18    19    1
    19    19    20   am
    20    20    21    2
    21    20    22    1
    22    22    23   ar
    23    23    24   ar
    24    24    25   ar
    25    25    26    1
    26    26    27   ar
    27    27    28   ar
    28    28    29   ar
    29    29    30   ar
    30    25    31   ar
    31    31    32   ar
    32    19     2    1
    33    32    22   ar
    34    16     3   ar
    35    30    26   ar
    36    15     7   ar
    37     1    33    1
    38     1    34    1
    39     1    35    1
    40     2    36    1
    41     8    37    1
    42    17    38    1
    43    17    39    1
    44    18    40    1
    45    18    41    1
    46    23    42    1
    47    24    43    1
    48    27    44    1
    49    28    45    1
    50    29    46    1
    51    31    47    1
    52    32    48    1
