@<TRIPOS>MOLECULE
*****
 49 51 0 0 0
SMALL
GASTEIGER

@<TRIPOS>ATOM
      1 C           0.9246   -1.9144    1.0071 C.3     1  UNL1        0.0168
      2 N           1.3462   -0.8873    0.0775 N.ar    1  UNL1       -0.2928
      3 C           2.5864   -0.8890   -0.4768 C.ar    1  UNL1        0.2951
      4 O           3.3602   -1.8256   -0.1471 O.2     1  UNL1       -0.2636
      5 C           2.9590    0.1030   -1.3597 C.ar    1  UNL1        0.1934
      6 O           4.2525    0.0768   -1.9202 O.3     1  UNL1       -0.4477
      7 C           5.3121    0.1370   -1.0241 C.ar    1  UNL1        0.1639
      8 C           6.2182   -0.9144   -0.9955 C.ar    1  UNL1       -0.0137
      9 C           7.2599   -0.8598   -0.1175 C.ar    1  UNL1       -0.0228
     10 C           7.4380    0.2081    0.7405 C.ar    1  UNL1        0.1264
     11 F           8.4627    0.2590    1.6022 F       1  UNL1       -0.2054
     12 C           6.5366    1.2593    0.7154 C.ar    1  UNL1        0.0125
     13 C           5.4638    1.2146   -0.1810 C.ar    1  UNL1        0.1681
     14 F           4.5746    2.2254   -0.2237 F       1  UNL1       -0.2015
     15 C           2.0690    1.1057   -1.6849 C.ar    1  UNL1       -0.0018
     16 C           0.8187    1.0821   -1.1079 C.ar    1  UNL1        0.0394
     17 C          -0.1108    2.0468   -1.3892 C.ar    1  UNL1        0.0419
     18 N          -1.3349    1.9836   -0.7964 N.ar    1  UNL1       -0.2222
     19 C          -1.6654    1.0036    0.0591 C.ar    1  UNL1        0.2173
     20 N          -2.9405    0.9523    0.6657 N.pl3   1  UNL1       -0.3104
     21 C          -3.9804    0.2265    0.0040 C.3     1  UNL1        0.0275
     22 C          -3.8138   -1.2465   -0.0735 C.3     1  UNL1       -0.0111
     23 C          -3.7451   -1.9774    1.2196 C.3     1  UNL1        0.0459
     24 O          -2.7207   -1.6003    2.0372 O.3     1  UNL1       -0.3949
     25 C          -5.3215    0.6498    0.5594 C.3     1  UNL1       -0.0111
     26 C          -6.4667   -0.0696   -0.0870 C.3     1  UNL1        0.0459
     27 O          -6.5591    0.1270   -1.4418 O.3     1  UNL1       -0.3949
     28 N          -0.7602    0.0668    0.3312 N.ar    1  UNL1       -0.1964
     29 C           0.4688    0.0797   -0.2276 C.ar    1  UNL1        0.1484
     30 H           1.0340   -1.5650    2.0686 H       1  UNL1        0.0457
     31 H          -0.1218   -2.2340    0.8488 H       1  UNL1        0.0457
     32 H           1.5608   -2.8172    0.9040 H       1  UNL1        0.0457
     33 H           6.1253   -1.7820   -1.6506 H       1  UNL1        0.0656
     34 H           7.9659   -1.7000   -0.1091 H       1  UNL1        0.0647
     35 H           6.6650    2.1096    1.3874 H       1  UNL1        0.0676
     36 H           2.3549    1.8883   -2.3778 H       1  UNL1        0.0664
     37 H           0.1535    2.8352   -2.0765 H       1  UNL1        0.0838
     38 H          -3.0849    1.4493    1.5847 H       1  UNL1        0.1492
     39 H          -3.9766    0.5967   -1.0645 H       1  UNL1        0.0500
     40 H          -4.6055   -1.6522   -0.7309 H       1  UNL1        0.0305
     41 H          -2.8503   -1.4319   -0.6345 H       1  UNL1        0.0305
     42 H          -4.7152   -1.8613    1.7554 H       1  UNL1        0.0558
     43 H          -3.6817   -3.0756    0.9575 H       1  UNL1        0.0558
     44 H          -3.0545   -1.0817    2.8238 H       1  UNL1        0.2094
     45 H          -5.4338    1.7386    0.2794 H       1  UNL1        0.0305
     46 H          -5.3883    0.6102    1.6459 H       1  UNL1        0.0305
     47 H          -6.4386   -1.1481    0.2054 H       1  UNL1        0.0558
     48 H          -7.4064    0.3266    0.3695 H       1  UNL1        0.0558
     49 H          -5.7341    0.0752   -1.9516 H       1  UNL1        0.2094
@<TRIPOS>BOND
     1     1     2    1
     2     2     3   ar
     3     3     4    2
     4     3     5   ar
     5     5     6    1
     6     6     7    1
     7     7     8   ar
     8     8     9   ar
     9     9    10   ar
    10    10    11    1
    11    10    12   ar
    12    12    13   ar
    13    13    14    1
    14     5    15   ar
    15    15    16   ar
    16    16    17   ar
    17    17    18   ar
    18    18    19   ar
    19    19    20    1
    20    20    21    1
    21    21    22    1
    22    22    23    1
    23    23    24    1
    24    21    25    1
    25    25    26    1
    26    26    27    1
    27    19    28   ar
    28    28    29   ar
    29    29     2   ar
    30    13     7   ar
    31    29    16   ar
    32     1    30    1
    33     1    31    1
    34     1    32    1
    35     8    33    1
    36     9    34    1
    37    12    35    1
    38    15    36    1
    39    17    37    1
    40    20    38    1
    41    21    39    1
    42    22    40    1
    43    22    41    1
    44    23    42    1
    45    23    43    1
    46    24    44    1
    47    25    45    1
    48    25    46    1
    49    26    47    1
    50    26    48    1
    51    27    49    1
