@<TRIPOS>MOLECULE
*****
 41 43 0 0 0
SMALL
GASTEIGER

@<TRIPOS>ATOM
      1 O           3.0217   -1.1452   -2.5398 O.2     1  UNL1       -0.2750
      2 C           2.1075   -1.2586   -1.6967 C.2     1  UNL1        0.2245
      3 C           0.8585   -2.0061   -2.0192 C.3     1  UNL1        0.0824
      4 C          -0.1067   -1.8504   -0.8979 C.ar    1  UNL1        0.1206
      5 N          -0.9740   -0.8287   -0.8870 N.ar    1  UNL1       -0.2186
      6 C          -1.8820   -0.6162    0.0921 C.ar    1  UNL1        0.1285
      7 N          -2.7802    0.4906    0.0522 N.pl3   1  UNL1       -0.3106
      8 C          -2.6614    1.4177   -1.0565 C.3     1  UNL1        0.0370
      9 C          -4.0645    1.7411   -1.5161 C.3     1  UNL1        0.0634
     10 O          -4.7082    2.3560   -0.4450 O.3     1  UNL1       -0.3767
     11 C          -4.9743    1.4870    0.5893 C.3     1  UNL1        0.0634
     12 C          -3.7728    0.7025    1.0567 C.3     1  UNL1        0.0370
     13 C          -1.8846   -1.5270    1.1239 C.ar    1  UNL1        0.0427
     14 C          -1.0018   -2.5786    1.1260 C.ar    1  UNL1        0.2533
     15 O          -0.9961   -3.4162    2.0642 O.2     1  UNL1       -0.2677
     16 N          -0.1292   -2.7222    0.1168 N.ar    1  UNL1       -0.3104
     17 N           2.2783   -0.6667   -0.4349 N.am    1  UNL1       -0.2851
     18 C           3.4254    0.0657   -0.0256 C.ar    1  UNL1        0.0348
     19 C           3.4324    1.4258   -0.2551 C.ar    1  UNL1       -0.0404
     20 C           4.5151    2.2191    0.1141 C.ar    1  UNL1       -0.0586
     21 C           5.6163    1.6209    0.7301 C.ar    1  UNL1       -0.0433
     22 C           5.6016    0.2556    0.9568 C.ar    1  UNL1        0.0427
     23 CL          7.0004   -0.4773    1.7348 Cl      1  UNL1       -0.0835
     24 C           4.5117   -0.5072    0.5791 C.ar    1  UNL1       -0.0221
     25 H           1.1357   -3.0582   -2.1874 H       1  UNL1        0.0438
     26 H           0.3876   -1.6222   -2.9518 H       1  UNL1        0.0438
     27 H          -2.1292    0.9543   -1.9280 H       1  UNL1        0.0487
     28 H          -2.1037    2.3347   -0.7700 H       1  UNL1        0.0487
     29 H          -4.0689    2.4428   -2.3593 H       1  UNL1        0.0575
     30 H          -4.5350    0.7501   -1.7737 H       1  UNL1        0.0575
     31 H          -5.3282    2.0941    1.4543 H       1  UNL1        0.0575
     32 H          -5.8305    0.7933    0.3489 H       1  UNL1        0.0575
     33 H          -3.3082    1.2150    1.9429 H       1  UNL1        0.0487
     34 H          -4.1722   -0.2607    1.4459 H       1  UNL1        0.0487
     35 H          -2.5822   -1.4164    1.9372 H       1  UNL1        0.0706
     36 H           0.5501   -3.5128    0.0975 H       1  UNL1        0.1700
     37 H           1.4937   -0.7759    0.2604 H       1  UNL1        0.1548
     38 H           2.5909    1.9006   -0.7286 H       1  UNL1        0.0636
     39 H           4.4835    3.2875   -0.0834 H       1  UNL1        0.0619
     40 H           6.4541    2.2568    1.0125 H       1  UNL1        0.0632
     41 H           4.5295   -1.5644    0.7679 H       1  UNL1        0.0651
@<TRIPOS>BOND
     1     1     2    2
     2     2     3    1
     3     3     4    1
     4     4     5   ar
     5     5     6   ar
     6     6     7    1
     7     7     8    1
     8     8     9    1
     9     9    10    1
    10    10    11    1
    11    11    12    1
    12     6    13   ar
    13    13    14   ar
    14    14    15    2
    15    14    16   ar
    16     2    17   am
    17    17    18    1
    18    18    19   ar
    19    19    20   ar
    20    20    21   ar
    21    21    22   ar
    22    22    23    1
    23    22    24   ar
    24    16     4   ar
    25    24    18   ar
    26    12     7    1
    27     3    25    1
    28     3    26    1
    29     8    27    1
    30     8    28    1
    31     9    29    1
    32     9    30    1
    33    11    31    1
    34    11    32    1
    35    12    33    1
    36    12    34    1
    37    13    35    1
    38    16    36    1
    39    17    37    1
    40    19    38    1
    41    20    39    1
    42    21    40    1
    43    24    41    1
