
     RDKit          3D

 41 43  0  0  0  0  0  0  0  0999 V2000
    3.0217   -1.1452   -2.5398 O   0  0  0  0  0  0  0  0  0  0  0  0
    2.1075   -1.2586   -1.6967 C   0  0  0  0  0  0  0  0  0  0  0  0
    0.8585   -2.0061   -2.0192 C   0  0  0  0  0  0  0  0  0  0  0  0
   -0.1067   -1.8504   -0.8979 C   0  0  0  0  0  0  0  0  0  0  0  0
   -0.9740   -0.8287   -0.8870 N   0  0  0  0  0  0  0  0  0  0  0  0
   -1.8820   -0.6162    0.0921 C   0  0  0  0  0  0  0  0  0  0  0  0
   -2.7802    0.4906    0.0522 N   0  0  0  0  0  0  0  0  0  0  0  0
   -2.6614    1.4177   -1.0565 C   0  0  0  0  0  0  0  0  0  0  0  0
   -4.0645    1.7411   -1.5161 C   0  0  0  0  0  0  0  0  0  0  0  0
   -4.7082    2.3560   -0.4450 O   0  0  0  0  0  0  0  0  0  0  0  0
   -4.9743    1.4870    0.5893 C   0  0  0  0  0  0  0  0  0  0  0  0
   -3.7728    0.7025    1.0567 C   0  0  0  0  0  0  0  0  0  0  0  0
   -1.8846   -1.5270    1.1239 C   0  0  0  0  0  0  0  0  0  0  0  0
   -1.0018   -2.5786    1.1260 C   0  0  0  0  0  0  0  0  0  0  0  0
   -0.9961   -3.4162    2.0642 O   0  0  0  0  0  0  0  0  0  0  0  0
   -0.1292   -2.7222    0.1168 N   0  0  0  0  0  0  0  0  0  0  0  0
    2.2783   -0.6667   -0.4349 N   0  0  0  0  0  0  0  0  0  0  0  0
    3.4254    0.0657   -0.0256 C   0  0  0  0  0  0  0  0  0  0  0  0
    3.4324    1.4258   -0.2551 C   0  0  0  0  0  0  0  0  0  0  0  0
    4.5151    2.2191    0.1141 C   0  0  0  0  0  0  0  0  0  0  0  0
    5.6163    1.6209    0.7301 C   0  0  0  0  0  0  0  0  0  0  0  0
    5.6016    0.2556    0.9568 C   0  0  0  0  0  0  0  0  0  0  0  0
    7.0004   -0.4773    1.7348 Cl  0  0  0  0  0  0  0  0  0  0  0  0
    4.5117   -0.5072    0.5791 C   0  0  0  0  0  0  0  0  0  0  0  0
    1.1357   -3.0582   -2.1874 H   0  0  0  0  0  0  0  0  0  0  0  0
    0.3876   -1.6222   -2.9518 H   0  0  0  0  0  0  0  0  0  0  0  0
   -2.1292    0.9543   -1.9280 H   0  0  0  0  0  0  0  0  0  0  0  0
   -2.1037    2.3347   -0.7700 H   0  0  0  0  0  0  0  0  0  0  0  0
   -4.0689    2.4428   -2.3593 H   0  0  0  0  0  0  0  0  0  0  0  0
   -4.5350    0.7501   -1.7737 H   0  0  0  0  0  0  0  0  0  0  0  0
   -5.3282    2.0941    1.4543 H   0  0  0  0  0  0  0  0  0  0  0  0
   -5.8305    0.7933    0.3489 H   0  0  0  0  0  0  0  0  0  0  0  0
   -3.3082    1.2150    1.9429 H   0  0  0  0  0  0  0  0  0  0  0  0
   -4.1722   -0.2607    1.4459 H   0  0  0  0  0  0  0  0  0  0  0  0
   -2.5822   -1.4164    1.9372 H   0  0  0  0  0  0  0  0  0  0  0  0
    0.5501   -3.5128    0.0975 H   0  0  0  0  0  0  0  0  0  0  0  0
    1.4937   -0.7759    0.2604 H   0  0  0  0  0  0  0  0  0  0  0  0
    2.5909    1.9006   -0.7286 H   0  0  0  0  0  0  0  0  0  0  0  0
    4.4835    3.2875   -0.0834 H   0  0  0  0  0  0  0  0  0  0  0  0
    6.4541    2.2568    1.0125 H   0  0  0  0  0  0  0  0  0  0  0  0
    4.5295   -1.5644    0.7679 H   0  0  0  0  0  0  0  0  0  0  0  0
  1  2  2  0
  2  3  1  0
  3  4  1  0
  4  5  2  0
  5  6  1  0
  6  7  1  0
  7  8  1  0
  8  9  1  0
  9 10  1  0
 10 11  1  0
 11 12  1  0
  6 13  2  0
 13 14  1  0
 14 15  2  0
 14 16  1  0
  2 17  1  0
 17 18  1  0
 18 19  2  0
 19 20  1  0
 20 21  2  0
 21 22  1  0
 22 23  1  0
 22 24  2  0
 16  4  1  0
 24 18  1  0
 12  7  1  0
  3 25  1  0
  3 26  1  0
  8 27  1  0
  8 28  1  0
  9 29  1  0
  9 30  1  0
 11 31  1  0
 11 32  1  0
 12 33  1  0
 12 34  1  0
 13 35  1  0
 16 36  1  0
 17 37  1  0
 19 38  1  0
 20 39  1  0
 21 40  1  0
 24 41  1  0
M  END
$$$$
