@<TRIPOS>MOLECULE
*****
 26 27 0 0 0
SMALL
GASTEIGER

@<TRIPOS>ATOM
      1 O          -3.3369   -2.3056   -0.1965 O.3     1  UNL1       -0.4770
      2 C          -3.4865   -0.9441   -0.0576 C.2     1  UNL1        0.3404
      3 O          -4.6439   -0.4563    0.0146 O.2     1  UNL1       -0.2450
      4 C          -2.3361   -0.0478    0.0086 C.ar    1  UNL1        0.1007
      5 C          -2.5752    1.3159    0.1496 C.ar    1  UNL1        0.1309
      6 O          -3.8599    1.8281    0.2267 O.3     1  UNL1       -0.5059
      7 C          -1.4564    2.1482    0.2099 C.ar    1  UNL1       -0.0188
      8 C          -0.1474    1.6594    0.1346 C.ar    1  UNL1       -0.0505
      9 C           0.0420    0.2982   -0.0051 C.ar    1  UNL1       -0.0141
     10 C          -1.0507   -0.5451   -0.0671 C.ar    1  UNL1       -0.0364
     11 C           1.4379   -0.1138   -0.0745 C.ar    1  UNL1        0.0175
     12 C           1.9005   -1.0283   -1.0028 C.ar    1  UNL1        0.1338
     13 F           1.0337   -1.5659   -1.8828 F       1  UNL1       -0.2048
     14 C           3.2425   -1.3498   -0.9828 C.ar    1  UNL1        0.0094
     15 C           4.1356   -0.8002   -0.0811 C.ar    1  UNL1        0.1262
     16 F           5.4429   -1.1717   -0.1294 F       1  UNL1       -0.2054
     17 C           3.6859    0.1250    0.8634 C.ar    1  UNL1       -0.0257
     18 C           2.3400    0.4269    0.8194 C.ar    1  UNL1       -0.0486
     19 H          -3.9916   -2.8157   -0.8021 H       1  UNL1        0.2954
     20 H          -4.3497    1.6880    1.1189 H       1  UNL1        0.2922
     21 H          -1.6926    3.2044    0.3202 H       1  UNL1        0.0654
     22 H           0.6470    2.3942    0.1918 H       1  UNL1        0.0625
     23 H          -0.8451   -1.5983   -0.1764 H       1  UNL1        0.0633
     24 H           3.5301   -2.0693   -1.7355 H       1  UNL1        0.0675
     25 H           4.3631    0.5696    1.5795 H       1  UNL1        0.0646
     26 H           1.9708    1.1537    1.5566 H       1  UNL1        0.0625
@<TRIPOS>BOND
     1     1     2    1
     2     2     3    2
     3     2     4    1
     4     4     5   ar
     5     5     6    1
     6     5     7   ar
     7     7     8   ar
     8     8     9   ar
     9     9    10   ar
    10     9    11    1
    11    11    12   ar
    12    12    13    1
    13    12    14   ar
    14    14    15   ar
    15    15    16    1
    16    15    17   ar
    17    17    18   ar
    18    10     4   ar
    19    18    11   ar
    20     1    19    1
    21     6    20    1
    22     7    21    1
    23     8    22    1
    24    10    23    1
    25    14    24    1
    26    17    25    1
    27    18    26    1
