
     RDKit          3D

 26 27  0  0  0  0  0  0  0  0999 V2000
   -3.3369   -2.3056   -0.1965 O   0  0  0  0  0  0  0  0  0  0  0  0
   -3.4865   -0.9441   -0.0576 C   0  0  0  0  0  0  0  0  0  0  0  0
   -4.6439   -0.4563    0.0146 O   0  0  0  0  0  0  0  0  0  0  0  0
   -2.3361   -0.0478    0.0086 C   0  0  0  0  0  0  0  0  0  0  0  0
   -2.5752    1.3159    0.1496 C   0  0  0  0  0  0  0  0  0  0  0  0
   -3.8599    1.8281    0.2267 O   0  0  0  0  0  0  0  0  0  0  0  0
   -1.4564    2.1482    0.2099 C   0  0  0  0  0  0  0  0  0  0  0  0
   -0.1474    1.6594    0.1346 C   0  0  0  0  0  0  0  0  0  0  0  0
    0.0420    0.2982   -0.0051 C   0  0  0  0  0  0  0  0  0  0  0  0
   -1.0507   -0.5451   -0.0671 C   0  0  0  0  0  0  0  0  0  0  0  0
    1.4379   -0.1138   -0.0745 C   0  0  0  0  0  0  0  0  0  0  0  0
    1.9005   -1.0283   -1.0028 C   0  0  0  0  0  0  0  0  0  0  0  0
    1.0337   -1.5659   -1.8828 F   0  0  0  0  0  0  0  0  0  0  0  0
    3.2425   -1.3498   -0.9828 C   0  0  0  0  0  0  0  0  0  0  0  0
    4.1356   -0.8002   -0.0811 C   0  0  0  0  0  0  0  0  0  0  0  0
    5.4429   -1.1717   -0.1294 F   0  0  0  0  0  0  0  0  0  0  0  0
    3.6859    0.1250    0.8634 C   0  0  0  0  0  0  0  0  0  0  0  0
    2.3400    0.4269    0.8194 C   0  0  0  0  0  0  0  0  0  0  0  0
   -3.9916   -2.8157   -0.8021 H   0  0  0  0  0  0  0  0  0  0  0  0
   -4.3497    1.6880    1.1189 H   0  0  0  0  0  0  0  0  0  0  0  0
   -1.6926    3.2044    0.3202 H   0  0  0  0  0  0  0  0  0  0  0  0
    0.6470    2.3942    0.1918 H   0  0  0  0  0  0  0  0  0  0  0  0
   -0.8451   -1.5983   -0.1764 H   0  0  0  0  0  0  0  0  0  0  0  0
    3.5301   -2.0693   -1.7355 H   0  0  0  0  0  0  0  0  0  0  0  0
    4.3631    0.5696    1.5795 H   0  0  0  0  0  0  0  0  0  0  0  0
    1.9708    1.1537    1.5566 H   0  0  0  0  0  0  0  0  0  0  0  0
  1  2  1  0
  2  3  2  0
  2  4  1  0
  4  5  2  0
  5  6  1  0
  5  7  1  0
  7  8  2  0
  8  9  1  0
  9 10  2  0
  9 11  1  0
 11 12  2  0
 12 13  1  0
 12 14  1  0
 14 15  2  0
 15 16  1  0
 15 17  1  0
 17 18  2  0
 10  4  1  0
 18 11  1  0
  1 19  1  0
  6 20  1  0
  7 21  1  0
  8 22  1  0
 10 23  1  0
 14 24  1  0
 17 25  1  0
 18 26  1  0
M  END
$$$$
