@<TRIPOS>MOLECULE
*****
 46 49 0 0 0
SMALL
GASTEIGER

@<TRIPOS>ATOM
      1 C          -1.2000    0.9825    1.1954 C.3     1  UNL1       -0.0350
      2 C          -1.7632    1.0438   -0.2419 C.3     1  UNL1        0.0988
      3 C          -0.7494    0.4156   -1.1451 C.ar    1  UNL1        0.0159
      4 C           0.4094   -0.1953   -0.6547 C.ar    1  UNL1       -0.0463
      5 C           1.3447   -0.7767   -1.4932 C.ar    1  UNL1       -0.0217
      6 C           2.5582   -1.3979   -0.9750 C.2     1  UNL1       -0.0171
      7 C           3.2068   -0.7796   -0.0042 C.2     1  UNL1        0.1506
      8 F           2.7056    0.4130    0.4625 F       1  UNL1       -0.2032
      9 C           4.4166   -1.2851    0.6033 C.ar    1  UNL1        0.1170
     10 C           4.9963   -2.4522    0.2220 C.ar    1  UNL1        0.0572
     11 N           6.1327   -2.8634    0.8469 N.ar    1  UNL1       -0.2409
     12 C           6.7037   -2.1537    1.8308 C.ar    1  UNL1        0.1581
     13 C           7.8994   -2.6227    2.4712 C.1     1  UNL1        0.1206
     14 N           8.8652   -3.0003    2.9659 N.1     1  UNL1       -0.1892
     15 C           6.1051   -0.9640    2.2127 C.ar    1  UNL1        0.0642
     16 N           4.9963   -0.5801    1.5904 N.ar    1  UNL1       -0.2483
     17 C           1.1655   -0.7751   -2.8556 C.ar    1  UNL1       -0.0518
     18 C           0.0402   -0.1836   -3.3515 C.ar    1  UNL1       -0.0255
     19 C          -0.8989    0.4004   -2.5169 C.ar    1  UNL1        0.1289
     20 F          -2.0034    0.9850   -3.0415 F       1  UNL1       -0.2051
     21 N          -1.8582    2.4100   -0.6046 N.2     1  UNL1       -0.2519
     22 C          -2.7189    3.2564   -0.1849 C.2     1  UNL1        0.1483
     23 N          -2.7215    4.5939   -0.6119 N.pl3   1  UNL1       -0.3380
     24 S          -3.9213    2.5936    0.9883 S.3     1  UNL1       -0.0755
     25 C          -4.1233    0.8558    0.5783 C.3     1  UNL1        0.1207
     26 C          -5.0149    0.0766    1.5025 C.3     1  UNL1        0.0653
     27 O          -6.3193    0.5984    1.5349 O.3     1  UNL1       -0.3934
     28 C          -3.0273    0.2629   -0.1951 C.3     1  UNL1        0.0757
     29 C          -4.2482    0.5158   -0.9386 C.3     1  UNL1        0.2730
     30 F          -5.0925   -0.5756   -1.2009 F       1  UNL1       -0.2036
     31 F          -4.5365    1.6115   -1.6901 F       1  UNL1       -0.2036
     32 H          -0.2036    1.4579    1.1407 H       1  UNL1        0.0256
     33 H          -1.8465    1.5340    1.9055 H       1  UNL1        0.0256
     34 H          -1.1094   -0.0861    1.4533 H       1  UNL1        0.0256
     35 H           0.5645   -0.2182    0.3949 H       1  UNL1        0.0628
     36 H           2.9293   -2.3376   -1.3638 H       1  UNL1        0.0653
     37 H           4.6015   -3.0764   -0.5555 H       1  UNL1        0.0852
     38 H           6.5926   -0.4134    3.0119 H       1  UNL1        0.0859
     39 H           1.9215   -1.2433   -3.5045 H       1  UNL1        0.0624
     40 H          -0.1517   -0.1544   -4.4111 H       1  UNL1        0.0646
     41 H          -2.9063    4.8101   -1.6334 H       1  UNL1        0.1442
     42 H          -2.5533    5.4072    0.0054 H       1  UNL1        0.1442
     43 H          -4.5998    0.1689    2.5385 H       1  UNL1        0.0573
     44 H          -5.1244   -0.9805    1.1847 H       1  UNL1        0.0573
     45 H          -6.6411    0.6702    2.4871 H       1  UNL1        0.2095
     46 H          -2.8223   -0.8235    0.0474 H       1  UNL1        0.0402
@<TRIPOS>BOND
     1     2     1    1
     2     2     3    1
     3     3     4   ar
     4     4     5   ar
     5     5     6    1
     6     6     7    2
     7     7     8    1
     8     7     9    1
     9     9    10   ar
    10    10    11   ar
    11    11    12   ar
    12    12    13    1
    13    13    14    3
    14    12    15   ar
    15    15    16   ar
    16     5    17   ar
    17    17    18   ar
    18    18    19   ar
    19    19    20    1
    20     2    21    1
    21    21    22    2
    22    22    23    1
    23    22    24    1
    24    24    25    1
    25    25    26    1
    26    26    27    1
    27    25    28    1
    28    28    29    1
    29    29    30    1
    30    29    31    1
    31    28     2    1
    32    19     3   ar
    33    29    25    1
    34    16     9   ar
    35     1    32    1
    36     1    33    1
    37     1    34    1
    38     4    35    1
    39     6    36    1
    40    10    37    1
    41    15    38    1
    42    17    39    1
    43    18    40    1
    44    23    41    1
    45    23    42    1
    46    26    43    1
    47    26    44    1
    48    27    45    1
    49    28    46    1
