
     RDKit          3D

 46 49  0  0  0  0  0  0  0  0999 V2000
   -1.2000    0.9825    1.1954 C   0  0  0  0  0  0  0  0  0  0  0  0
   -1.7632    1.0438   -0.2419 C   0  0  2  0  0  0  0  0  0  0  0  0
   -0.7494    0.4156   -1.1451 C   0  0  0  0  0  0  0  0  0  0  0  0
    0.4094   -0.1953   -0.6547 C   0  0  0  0  0  0  0  0  0  0  0  0
    1.3447   -0.7767   -1.4932 C   0  0  0  0  0  0  0  0  0  0  0  0
    2.5582   -1.3979   -0.9750 C   0  0  0  0  0  0  0  0  0  0  0  0
    3.2068   -0.7796   -0.0042 C   0  0  0  0  0  0  0  0  0  0  0  0
    2.7056    0.4130    0.4625 F   0  0  0  0  0  0  0  0  0  0  0  0
    4.4166   -1.2851    0.6033 C   0  0  0  0  0  0  0  0  0  0  0  0
    4.9963   -2.4522    0.2220 C   0  0  0  0  0  0  0  0  0  0  0  0
    6.1327   -2.8634    0.8469 N   0  0  0  0  0  0  0  0  0  0  0  0
    6.7037   -2.1537    1.8308 C   0  0  0  0  0  0  0  0  0  0  0  0
    7.8994   -2.6227    2.4712 C   0  0  0  0  0  0  0  0  0  0  0  0
    8.8652   -3.0003    2.9659 N   0  0  0  0  0  0  0  0  0  0  0  0
    6.1051   -0.9640    2.2127 C   0  0  0  0  0  0  0  0  0  0  0  0
    4.9963   -0.5801    1.5904 N   0  0  0  0  0  0  0  0  0  0  0  0
    1.1655   -0.7751   -2.8556 C   0  0  0  0  0  0  0  0  0  0  0  0
    0.0402   -0.1836   -3.3515 C   0  0  0  0  0  0  0  0  0  0  0  0
   -0.8989    0.4004   -2.5169 C   0  0  0  0  0  0  0  0  0  0  0  0
   -2.0034    0.9850   -3.0415 F   0  0  0  0  0  0  0  0  0  0  0  0
   -1.8582    2.4100   -0.6046 N   0  0  0  0  0  0  0  0  0  0  0  0
   -2.7189    3.2564   -0.1849 C   0  0  0  0  0  0  0  0  0  0  0  0
   -2.7215    4.5939   -0.6119 N   0  0  0  0  0  0  0  0  0  0  0  0
   -3.9213    2.5936    0.9883 S   0  0  0  0  0  0  0  0  0  0  0  0
   -4.1233    0.8558    0.5783 C   0  0  2  0  0  0  0  0  0  0  0  0
   -5.0149    0.0766    1.5025 C   0  0  0  0  0  0  0  0  0  0  0  0
   -6.3193    0.5984    1.5349 O   0  0  0  0  0  0  0  0  0  0  0  0
   -3.0273    0.2629   -0.1951 C   0  0  1  0  0  0  0  0  0  0  0  0
   -4.2482    0.5158   -0.9386 C   0  0  0  0  0  0  0  0  0  0  0  0
   -5.0925   -0.5756   -1.2009 F   0  0  0  0  0  0  0  0  0  0  0  0
   -4.5365    1.6115   -1.6901 F   0  0  0  0  0  0  0  0  0  0  0  0
   -0.2036    1.4579    1.1407 H   0  0  0  0  0  0  0  0  0  0  0  0
   -1.8465    1.5340    1.9055 H   0  0  0  0  0  0  0  0  0  0  0  0
   -1.1094   -0.0861    1.4533 H   0  0  0  0  0  0  0  0  0  0  0  0
    0.5645   -0.2182    0.3949 H   0  0  0  0  0  0  0  0  0  0  0  0
    2.9293   -2.3376   -1.3638 H   0  0  0  0  0  0  0  0  0  0  0  0
    4.6015   -3.0764   -0.5555 H   0  0  0  0  0  0  0  0  0  0  0  0
    6.5926   -0.4134    3.0119 H   0  0  0  0  0  0  0  0  0  0  0  0
    1.9215   -1.2433   -3.5045 H   0  0  0  0  0  0  0  0  0  0  0  0
   -0.1517   -0.1544   -4.4111 H   0  0  0  0  0  0  0  0  0  0  0  0
   -2.9063    4.8101   -1.6334 H   0  0  0  0  0  0  0  0  0  0  0  0
   -2.5533    5.4072    0.0054 H   0  0  0  0  0  0  0  0  0  0  0  0
   -4.5998    0.1689    2.5385 H   0  0  0  0  0  0  0  0  0  0  0  0
   -5.1244   -0.9805    1.1847 H   0  0  0  0  0  0  0  0  0  0  0  0
   -6.6411    0.6702    2.4871 H   0  0  0  0  0  0  0  0  0  0  0  0
   -2.8223   -0.8235    0.0474 H   0  0  0  0  0  0  0  0  0  0  0  0
  2  1  1  1
  2  3  1  0
  3  4  2  0
  4  5  1  0
  5  6  1  0
  6  7  2  0
  7  8  1  0
  7  9  1  0
  9 10  2  0
 10 11  1  0
 11 12  2  0
 12 13  1  0
 13 14  3  0
 12 15  1  0
 15 16  2  0
  5 17  2  0
 17 18  1  0
 18 19  2  0
 19 20  1  0
  2 21  1  0
 21 22  2  0
 22 23  1  0
 22 24  1  0
 24 25  1  0
 25 26  1  1
 26 27  1  0
 25 28  1  0
 28 29  1  0
 29 30  1  0
 29 31  1  0
 28  2  1  0
 19  3  1  0
 29 25  1  0
 16  9  1  0
  1 32  1  0
  1 33  1  0
  1 34  1  0
  4 35  1  0
  6 36  1  0
 10 37  1  0
 15 38  1  0
 17 39  1  0
 18 40  1  0
 23 41  1  0
 23 42  1  0
 26 43  1  0
 26 44  1  0
 27 45  1  0
 28 46  1  1
M  END
$$$$
