
     RDKit          3D

 49 53  0  0  0  0  0  0  0  0999 V2000
   -6.8314   -1.1442   -1.5978 C   0  0  0  0  0  0  0  0  0  0  0  0
   -6.2514   -0.2032   -0.6103 C   0  0  0  0  0  0  0  0  0  0  0  0
   -7.0014    0.6436    0.1735 C   0  0  0  0  0  0  0  0  0  0  0  0
   -6.4254    1.5057    1.0817 C   0  0  0  0  0  0  0  0  0  0  0  0
   -5.0789    1.5045    1.1913 N   0  0  0  0  0  0  0  0  0  0  0  0
   -4.3198    0.6749    0.4254 C   0  0  0  0  0  0  0  0  0  0  0  0
   -2.9626    0.5102    0.3727 C   0  0  0  0  0  0  0  0  0  0  0  0
   -2.7317   -0.4617   -0.5788 C   0  0  0  0  0  0  0  0  0  0  0  0
   -3.9386   -0.8316   -1.0475 N   0  0  0  0  0  0  0  0  0  0  0  0
   -4.9054   -0.1584   -0.4549 N   0  0  0  0  0  0  0  0  0  0  0  0
   -1.2539   -0.6302   -0.6264 C   0  0  0  0  0  0  0  0  0  0  0  0
   -0.8569   -0.2495    0.6766 N   0  0  0  0  0  0  0  0  0  0  0  0
    0.5296   -0.1205    0.9200 C   0  0  1  0  0  0  0  0  0  0  0  0
    1.1898   -1.4620    0.6544 C   0  0  0  0  0  0  0  0  0  0  0  0
    2.5570   -1.2738    0.9631 O   0  0  0  0  0  0  0  0  0  0  0  0
    3.1236   -0.6966   -0.1651 C   0  0  2  0  0  0  0  0  0  0  0  0
    4.5526   -0.3299    0.0697 C   0  0  0  0  0  0  0  0  0  0  0  0
    4.9461    0.2107    1.2762 C   0  0  0  0  0  0  0  0  0  0  0  0
    6.2798    0.5591    1.5114 C   0  0  0  0  0  0  0  0  0  0  0  0
    6.6165    1.0895    2.7198 F   0  0  0  0  0  0  0  0  0  0  0  0
    7.1951    0.3496    0.5080 C   0  0  0  0  0  0  0  0  0  0  0  0
    6.8266   -0.1900   -0.7084 C   0  0  0  0  0  0  0  0  0  0  0  0
    5.5068   -0.5243   -0.9142 C   0  0  0  0  0  0  0  0  0  0  0  0
    5.1132   -1.0555   -2.0960 F   0  0  0  0  0  0  0  0  0  0  0  0
    2.3341    0.4266   -0.7422 C   0  0  1  0  0  0  0  0  0  0  0  0
    1.8249    0.1077   -2.0677 N   0  0  0  0  0  0  0  0  0  0  0  0
    1.2394    0.9386    0.1638 C   0  0  0  0  0  0  0  0  0  0  0  0
   -1.6276    0.9479    0.9205 C   0  0  0  0  0  0  0  0  0  0  0  0
   -6.0761   -1.3150   -2.3858 H   0  0  0  0  0  0  0  0  0  0  0  0
   -6.9896   -2.1351   -1.0986 H   0  0  0  0  0  0  0  0  0  0  0  0
   -7.7506   -0.7867   -2.0624 H   0  0  0  0  0  0  0  0  0  0  0  0
   -8.0912    0.5857    0.0259 H   0  0  0  0  0  0  0  0  0  0  0  0
   -7.0701    2.1471    1.6693 H   0  0  0  0  0  0  0  0  0  0  0  0
   -1.0648   -1.6918   -0.8788 H   0  0  0  0  0  0  0  0  0  0  0  0
   -0.9007    0.0621   -1.4356 H   0  0  0  0  0  0  0  0  0  0  0  0
    0.6588    0.0510    2.0299 H   0  0  0  0  0  0  0  0  0  0  0  0
    0.8072   -2.1580    1.4149 H   0  0  0  0  0  0  0  0  0  0  0  0
    1.0639   -1.8095   -0.3763 H   0  0  0  0  0  0  0  0  0  0  0  0
    3.1604   -1.5202   -0.9376 H   0  0  0  0  0  0  0  0  0  0  0  0
    4.1937    0.3579    2.0363 H   0  0  0  0  0  0  0  0  0  0  0  0
    8.2311    0.6305    0.7170 H   0  0  0  0  0  0  0  0  0  0  0  0
    7.5727   -0.3483   -1.4937 H   0  0  0  0  0  0  0  0  0  0  0  0
    3.0540    1.2809   -0.9084 H   0  0  0  0  0  0  0  0  0  0  0  0
    2.4263   -0.6356   -2.4845 H   0  0  0  0  0  0  0  0  0  0  0  0
    1.8025    0.9629   -2.6671 H   0  0  0  0  0  0  0  0  0  0  0  0
    1.7384    1.6581    0.8784 H   0  0  0  0  0  0  0  0  0  0  0  0
    0.5816    1.5757   -0.4607 H   0  0  0  0  0  0  0  0  0  0  0  0
   -1.3196    1.8035    0.3011 H   0  0  0  0  0  0  0  0  0  0  0  0
   -1.6783    1.1474    1.9951 H   0  0  0  0  0  0  0  0  0  0  0  0
  1  2  1  0
  2  3  2  0
  3  4  1  0
  4  5  2  0
  5  6  1  0
  6  7  2  0
  7  8  1  0
  8  9  2  0
  9 10  1  0
  8 11  1  0
 11 12  1  0
 12 13  1  0
 13 14  1  0
 14 15  1  0
 15 16  1  0
 16 17  1  0
 17 18  2  0
 18 19  1  0
 19 20  1  0
 19 21  2  0
 21 22  1  0
 22 23  2  0
 23 24  1  0
 16 25  1  0
 25 26  1  0
 25 27  1  0
 12 28  1  0
 10  2  1  0
 27 13  1  0
 10  6  1  0
 23 17  1  0
 28  7  1  0
  1 29  1  0
  1 30  1  0
  1 31  1  0
  3 32  1  0
  4 33  1  0
 11 34  1  0
 11 35  1  0
 13 36  1  1
 14 37  1  0
 14 38  1  0
 16 39  1  6
 18 40  1  0
 21 41  1  0
 22 42  1  0
 25 43  1  6
 26 44  1  0
 26 45  1  0
 27 46  1  0
 27 47  1  0
 28 48  1  0
 28 49  1  0
M  END
$$$$
