@<TRIPOS>MOLECULE
*****
 49 53 0 0 0
SMALL
GASTEIGER

@<TRIPOS>ATOM
      1 C          -6.8314   -1.1442   -1.5978 C.3     1  UNL1       -0.0222
      2 C          -6.2514   -0.2032   -0.6103 C.ar    1  UNL1        0.0435
      3 C          -7.0014    0.6436    0.1735 C.ar    1  UNL1       -0.0224
      4 C          -6.4254    1.5057    1.0817 C.ar    1  UNL1        0.0317
      5 N          -5.0789    1.5045    1.1913 N.ar    1  UNL1       -0.2358
      6 C          -4.3198    0.6749    0.4254 C.ar    1  UNL1        0.1604
      7 C          -2.9626    0.5102    0.3727 C.ar    1  UNL1        0.0349
      8 C          -2.7317   -0.4617   -0.5788 C.ar    1  UNL1        0.0839
      9 N          -3.9386   -0.8316   -1.0475 N.ar    1  UNL1       -0.1681
     10 N          -4.9054   -0.1584   -0.4549 N.ar    1  UNL1       -0.2183
     11 C          -1.2539   -0.6302   -0.6264 C.3     1  UNL1        0.0440
     12 N          -0.8569   -0.2495    0.6766 N.3     1  UNL1       -0.2871
     13 C           0.5296   -0.1205    0.9200 C.3     1  UNL1        0.0360
     14 C           1.1898   -1.4620    0.6544 C.3     1  UNL1        0.0641
     15 O           2.5570   -1.2738    0.9631 O.3     1  UNL1       -0.3688
     16 C           3.1236   -0.6966   -0.1651 C.3     1  UNL1        0.1015
     17 C           4.5526   -0.3299    0.0697 C.ar    1  UNL1        0.0205
     18 C           4.9461    0.2107    1.2762 C.ar    1  UNL1       -0.0180
     19 C           6.2798    0.5591    1.5114 C.ar    1  UNL1        0.1239
     20 F           6.6165    1.0895    2.7198 F       1  UNL1       -0.2055
     21 C           7.1951    0.3496    0.5080 C.ar    1  UNL1       -0.0237
     22 C           6.8266   -0.1900   -0.7084 C.ar    1  UNL1       -0.0234
     23 C           5.5068   -0.5243   -0.9142 C.ar    1  UNL1        0.1292
     24 F           5.1132   -1.0555   -2.0960 F       1  UNL1       -0.2051
     25 C           2.3341    0.4266   -0.7422 C.3     1  UNL1        0.0371
     26 N           1.8249    0.1077   -2.0677 N.3     1  UNL1       -0.3248
     27 C           1.2394    0.9386    0.1638 C.3     1  UNL1       -0.0172
     28 C          -1.6276    0.9479    0.9205 C.3     1  UNL1        0.0301
     29 H          -6.0761   -1.3150   -2.3858 H       1  UNL1        0.0293
     30 H          -6.9896   -2.1351   -1.0986 H       1  UNL1        0.0293
     31 H          -7.7506   -0.7867   -2.0624 H       1  UNL1        0.0293
     32 H          -8.0912    0.5857    0.0259 H       1  UNL1        0.0650
     33 H          -7.0701    2.1471    1.6693 H       1  UNL1        0.0831
     34 H          -1.0648   -1.6918   -0.8788 H       1  UNL1        0.0492
     35 H          -0.9007    0.0621   -1.4356 H       1  UNL1        0.0492
     36 H           0.6588    0.0510    2.0299 H       1  UNL1        0.0486
     37 H           0.8072   -2.1580    1.4149 H       1  UNL1        0.0576
     38 H           1.0639   -1.8095   -0.3763 H       1  UNL1        0.0576
     39 H           3.1604   -1.5202   -0.9376 H       1  UNL1        0.0663
     40 H           4.1937    0.3579    2.0363 H       1  UNL1        0.0651
     41 H           8.2311    0.6305    0.7170 H       1  UNL1        0.0647
     42 H           7.5727   -0.3483   -1.4937 H       1  UNL1        0.0647
     43 H           3.0540    1.2809   -0.9084 H       1  UNL1        0.0488
     44 H           2.4263   -0.6356   -2.4845 H       1  UNL1        0.1186
     45 H           1.8025    0.9629   -2.6671 H       1  UNL1        0.1186
     46 H           1.7384    1.6581    0.8784 H       1  UNL1        0.0297
     47 H           0.5816    1.5757   -0.4607 H       1  UNL1        0.0297
     48 H          -1.3196    1.8035    0.3011 H       1  UNL1        0.0478
     49 H          -1.6783    1.1474    1.9951 H       1  UNL1        0.0478
@<TRIPOS>BOND
     1     1     2    1
     2     2     3   ar
     3     3     4   ar
     4     4     5   ar
     5     5     6   ar
     6     6     7   ar
     7     7     8   ar
     8     8     9   ar
     9     9    10   ar
    10     8    11    1
    11    11    12    1
    12    12    13    1
    13    13    14    1
    14    14    15    1
    15    15    16    1
    16    16    17    1
    17    17    18   ar
    18    18    19   ar
    19    19    20    1
    20    19    21   ar
    21    21    22   ar
    22    22    23   ar
    23    23    24    1
    24    16    25    1
    25    25    26    1
    26    25    27    1
    27    12    28    1
    28    10     2   ar
    29    27    13    1
    30    10     6   ar
    31    23    17   ar
    32    28     7    1
    33     1    29    1
    34     1    30    1
    35     1    31    1
    36     3    32    1
    37     4    33    1
    38    11    34    1
    39    11    35    1
    40    13    36    1
    41    14    37    1
    42    14    38    1
    43    16    39    1
    44    18    40    1
    45    21    41    1
    46    22    42    1
    47    25    43    1
    48    26    44    1
    49    26    45    1
    50    27    46    1
    51    27    47    1
    52    28    48    1
    53    28    49    1
