@<TRIPOS>MOLECULE
*****
 34 36 0 0 0
SMALL
GASTEIGER

@<TRIPOS>ATOM
      1 C          -5.9432   -0.5339   -1.7700 C.3     1  UNL1       -0.0397
      2 C          -4.8458   -0.0652   -0.8807 C.ar    1  UNL1       -0.0497
      3 C          -5.1378    0.6852    0.2392 C.ar    1  UNL1       -0.0553
      4 C          -4.1299    1.1256    1.0716 C.ar    1  UNL1       -0.0184
      5 C          -2.7953    0.8461    0.8364 C.ar    1  UNL1        0.1391
      6 O          -1.8404    1.2638    1.6257 O.2     1  UNL1       -0.4216
      7 C          -0.5509    0.9986    1.4060 C.ar    1  UNL1        0.3495
      8 O           0.2960    1.4383    2.2133 O.2     1  UNL1       -0.2443
      9 C          -0.1697    0.2653    0.3258 C.ar    1  UNL1        0.1219
     10 C           1.2055   -0.0717    0.0075 C.2     1  UNL1        0.2552
     11 O           1.3497   -0.7703   -1.0539 O.2     1  UNL1       -0.2696
     12 N           2.3505    0.2833    0.7279 N.am    1  UNL1       -0.2813
     13 C           3.6627   -0.0828    0.3552 C.ar    1  UNL1        0.0338
     14 C           4.7067    0.3599    1.1962 C.ar    1  UNL1       -0.0391
     15 C           6.0277    0.0766    0.9531 C.ar    1  UNL1       -0.0416
     16 C           6.4116   -0.6646   -0.1387 C.ar    1  UNL1        0.0411
     17 CL          8.1106   -1.0211   -0.4390 Cl      1  UNL1       -0.0835
     18 C           5.4177   -1.1057   -0.9697 C.ar    1  UNL1       -0.0416
     19 C           4.0634   -0.8149   -0.7200 C.ar    1  UNL1       -0.0391
     20 C          -1.1770   -0.1946   -0.5366 C.ar    1  UNL1       -0.0320
     21 C          -2.4952    0.0975   -0.2794 C.ar    1  UNL1        0.0186
     22 C          -3.5188   -0.3487   -1.1230 C.ar    1  UNL1       -0.0481
     23 H          -6.4572   -1.4047   -1.2741 H       1  UNL1        0.0278
     24 H          -5.5624   -0.8964   -2.7243 H       1  UNL1        0.0278
     25 H          -6.6934    0.2727   -1.8440 H       1  UNL1        0.0278
     26 H          -6.1815    0.9137    0.4386 H       1  UNL1        0.0621
     27 H          -4.3650    1.7157    1.9514 H       1  UNL1        0.0654
     28 H           2.2091    0.8627    1.6050 H       1  UNL1        0.1551
     29 H           4.4472    0.9464    2.0666 H       1  UNL1        0.0636
     30 H           6.8224    0.4223    1.6068 H       1  UNL1        0.0633
     31 H           5.6834   -1.6899   -1.8355 H       1  UNL1        0.0633
     32 H           3.3330   -1.1950   -1.4174 H       1  UNL1        0.0636
     33 H          -0.9541   -0.7856   -1.4196 H       1  UNL1        0.0634
     34 H          -3.2796   -0.9284   -1.9863 H       1  UNL1        0.0627
@<TRIPOS>BOND
     1     1     2    1
     2     2     3   ar
     3     3     4   ar
     4     4     5   ar
     5     5     6   ar
     6     6     7   ar
     7     7     8    2
     8     7     9   ar
     9     9    10    1
    10    10    11    2
    11    10    12   am
    12    12    13    1
    13    13    14   ar
    14    14    15   ar
    15    15    16   ar
    16    16    17    1
    17    16    18   ar
    18    18    19   ar
    19     9    20   ar
    20    20    21   ar
    21    21    22   ar
    22    22     2   ar
    23    21     5   ar
    24    19    13   ar
    25     1    23    1
    26     1    24    1
    27     1    25    1
    28     3    26    1
    29     4    27    1
    30    12    28    1
    31    14    29    1
    32    15    30    1
    33    18    31    1
    34    19    32    1
    35    20    33    1
    36    22    34    1
