@<TRIPOS>MOLECULE
*****
 50 53 0 0 0
SMALL
GASTEIGER

@<TRIPOS>ATOM
      1 C          -2.6740    0.9649    1.4931 C.3     1  UNL1       -0.0112
      2 C          -2.5234    0.6461   -0.0335 C.3     1  UNL1        0.1961
      3 C          -1.3415   -0.3302    0.0667 C.ar    1  UNL1        0.0420
      4 C          -0.0999    0.3495   -0.1045 C.ar    1  UNL1       -0.0301
      5 C           1.0097   -0.4497    0.2795 C.ar    1  UNL1        0.0330
      6 N           2.3024    0.1898    0.1977 N.pl3   1  UNL1       -0.2977
      7 C           3.3963   -0.4952   -0.4023 C.ar    1  UNL1        0.1492
      8 N           3.5249   -0.4006   -1.7580 N.ar    1  UNL1       -0.2351
      9 C           4.4140   -1.1033   -2.4610 C.ar    1  UNL1        0.0656
     10 C           5.2411   -1.9754   -1.8555 C.ar    1  UNL1        0.1507
     11 F           6.1799   -2.7280   -2.4653 F       1  UNL1       -0.2032
     12 C           5.1596   -2.1277   -0.4790 C.ar    1  UNL1        0.0417
     13 C           5.8663   -3.1018    0.1777 C.ar    1  UNL1       -0.0308
     14 C           5.6800   -3.3516    1.4810 C.ar    1  UNL1        0.0705
     15 C           5.9910   -4.6401    2.1115 C.1     1  UNL1        0.1007
     16 N           6.2631   -5.7018    2.6172 N.1     1  UNL1       -0.1908
     17 C           4.7668   -2.5709    2.1981 C.ar    1  UNL1        0.0458
     18 N           4.0983   -1.6339    1.5359 N.ar    1  UNL1       -0.2502
     19 C           4.2273   -1.3680    0.2151 C.ar    1  UNL1        0.1137
     20 C           0.8010   -1.7100    0.7361 C.ar    1  UNL1       -0.0378
     21 C          -0.4450   -2.3797    0.8987 C.ar    1  UNL1       -0.0243
     22 C          -1.5090   -1.4832    0.4786 C.ar    1  UNL1        0.1311
     23 F          -2.7691   -2.0775    0.5985 F       1  UNL1       -0.2050
     24 C          -3.7950    0.1934   -0.5404 C.3     1  UNL1        0.1212
     25 S          -5.0104    1.4591    0.0171 S.O2    1  UNL1        0.0192
     26 O          -5.9792    1.6922   -1.1129 O.2     1  UNL1       -0.1706
     27 O          -5.7247    1.0616    1.2228 O.2     1  UNL1       -0.1706
     28 C          -4.0456    2.9339    0.2537 C.3     1  UNL1        0.3220
     29 C          -4.9865    4.0514   -0.3361 C.3     1  UNL1        0.0013
     30 F          -3.9680    3.3575    1.5806 F       1  UNL1       -0.2044
     31 C          -2.7966    2.9724   -0.4723 C.2     1  UNL1        0.3390
     32 N          -2.3452    4.2182   -1.0296 N.pl3   1  UNL1       -0.2465
     33 N          -2.0429    1.8702   -0.6266 N.2     1  UNL1       -0.0700
     34 H          -3.6656    0.8653    1.8731 H       1  UNL1        0.0279
     35 H          -2.1779    1.9043    1.7248 H       1  UNL1        0.0279
     36 H          -2.0729    0.1678    2.0400 H       1  UNL1        0.0279
     37 H           0.0265    1.3024   -0.4530 H       1  UNL1        0.0641
     38 H           2.4348    1.1426    0.5891 H       1  UNL1        0.1536
     39 H           4.4822   -0.9633   -3.5521 H       1  UNL1        0.0860
     40 H           6.6207   -3.7171   -0.3512 H       1  UNL1        0.0638
     41 H           4.6305   -2.7462    3.2602 H       1  UNL1        0.0843
     42 H           1.6576   -2.3359    1.0047 H       1  UNL1        0.0637
     43 H          -0.6440   -3.3122    1.2052 H       1  UNL1        0.0647
     44 H          -4.2498   -0.7431   -0.2117 H       1  UNL1        0.0551
     45 H          -3.8644    0.1976   -1.6776 H       1  UNL1        0.0551
     46 H          -5.3984    3.5257   -1.2520 H       1  UNL1        0.0283
     47 H          -5.7941    4.1475    0.4222 H       1  UNL1        0.0283
     48 H          -4.4647    4.9563   -0.5542 H       1  UNL1        0.0283
     49 H          -1.9187    4.2133   -1.9532 H       1  UNL1        0.2882
     50 H          -2.4673    5.0637   -0.4534 H       1  UNL1        0.2882
@<TRIPOS>BOND
     1     2     1    1
     2     2     3    1
     3     3     4   ar
     4     4     5   ar
     5     5     6    1
     6     6     7    1
     7     7     8   ar
     8     8     9   ar
     9     9    10   ar
    10    10    11    1
    11    10    12   ar
    12    12    13   ar
    13    13    14   ar
    14    14    15    1
    15    15    16    3
    16    14    17   ar
    17    17    18   ar
    18    18    19   ar
    19     5    20   ar
    20    20    21   ar
    21    21    22   ar
    22    22    23    1
    23     2    24    1
    24    24    25    1
    25    25    26    2
    26    25    27    2
    27    25    28    1
    28    28    29    1
    29    28    30    1
    30    28    31    1
    31    31    32    1
    32    31    33    2
    33    33     2    1
    34    22     3   ar
    35    19     7   ar
    36    19    12   ar
    37     1    34    1
    38     1    35    1
    39     1    36    1
    40     4    37    1
    41     6    38    1
    42     9    39    1
    43    13    40    1
    44    17    41    1
    45    20    42    1
    46    21    43    1
    47    24    44    1
    48    24    45    1
    49    29    46    1
    50    29    47    1
    51    29    48    1
    52    32    49    1
    53    32    50    1
