
     RDKit          3D

 50 53  0  0  0  0  0  0  0  0999 V2000
   -2.6740    0.9649    1.4931 C   0  0  0  0  0  0  0  0  0  0  0  0
   -2.5234    0.6461   -0.0335 C   0  0  1  0  0  0  0  0  0  0  0  0
   -1.3415   -0.3302    0.0667 C   0  0  0  0  0  0  0  0  0  0  0  0
   -0.0999    0.3495   -0.1045 C   0  0  0  0  0  0  0  0  0  0  0  0
    1.0097   -0.4497    0.2795 C   0  0  0  0  0  0  0  0  0  0  0  0
    2.3024    0.1898    0.1977 N   0  0  0  0  0  0  0  0  0  0  0  0
    3.3963   -0.4952   -0.4023 C   0  0  0  0  0  0  0  0  0  0  0  0
    3.5249   -0.4006   -1.7580 N   0  0  0  0  0  0  0  0  0  0  0  0
    4.4140   -1.1033   -2.4610 C   0  0  0  0  0  0  0  0  0  0  0  0
    5.2411   -1.9754   -1.8555 C   0  0  0  0  0  0  0  0  0  0  0  0
    6.1799   -2.7280   -2.4653 F   0  0  0  0  0  0  0  0  0  0  0  0
    5.1596   -2.1277   -0.4790 C   0  0  0  0  0  0  0  0  0  0  0  0
    5.8663   -3.1018    0.1777 C   0  0  0  0  0  0  0  0  0  0  0  0
    5.6800   -3.3516    1.4810 C   0  0  0  0  0  0  0  0  0  0  0  0
    5.9910   -4.6401    2.1115 C   0  0  0  0  0  0  0  0  0  0  0  0
    6.2631   -5.7018    2.6172 N   0  0  0  0  0  0  0  0  0  0  0  0
    4.7668   -2.5709    2.1981 C   0  0  0  0  0  0  0  0  0  0  0  0
    4.0983   -1.6339    1.5359 N   0  0  0  0  0  0  0  0  0  0  0  0
    4.2273   -1.3680    0.2151 C   0  0  0  0  0  0  0  0  0  0  0  0
    0.8010   -1.7100    0.7361 C   0  0  0  0  0  0  0  0  0  0  0  0
   -0.4450   -2.3797    0.8987 C   0  0  0  0  0  0  0  0  0  0  0  0
   -1.5090   -1.4832    0.4786 C   0  0  0  0  0  0  0  0  0  0  0  0
   -2.7691   -2.0775    0.5985 F   0  0  0  0  0  0  0  0  0  0  0  0
   -3.7950    0.1934   -0.5404 C   0  0  0  0  0  0  0  0  0  0  0  0
   -5.0104    1.4591    0.0171 S   0  0  0  0  0  6  0  0  0  0  0  0
   -5.9792    1.6922   -1.1129 O   0  0  0  0  0  0  0  0  0  0  0  0
   -5.7247    1.0616    1.2228 O   0  0  0  0  0  0  0  0  0  0  0  0
   -4.0456    2.9339    0.2537 C   0  0  1  0  0  0  0  0  0  0  0  0
   -4.9865    4.0514   -0.3361 C   0  0  0  0  0  0  0  0  0  0  0  0
   -3.9680    3.3575    1.5806 F   0  0  0  0  0  0  0  0  0  0  0  0
   -2.7966    2.9724   -0.4723 C   0  0  0  0  0  0  0  0  0  0  0  0
   -2.3452    4.2182   -1.0296 N   0  0  0  0  0  0  0  0  0  0  0  0
   -2.0429    1.8702   -0.6266 N   0  0  0  0  0  0  0  0  0  0  0  0
   -3.6656    0.8653    1.8731 H   0  0  0  0  0  0  0  0  0  0  0  0
   -2.1779    1.9043    1.7248 H   0  0  0  0  0  0  0  0  0  0  0  0
   -2.0729    0.1678    2.0400 H   0  0  0  0  0  0  0  0  0  0  0  0
    0.0265    1.3024   -0.4530 H   0  0  0  0  0  0  0  0  0  0  0  0
    2.4348    1.1426    0.5891 H   0  0  0  0  0  0  0  0  0  0  0  0
    4.4822   -0.9633   -3.5521 H   0  0  0  0  0  0  0  0  0  0  0  0
    6.6207   -3.7171   -0.3512 H   0  0  0  0  0  0  0  0  0  0  0  0
    4.6305   -2.7462    3.2602 H   0  0  0  0  0  0  0  0  0  0  0  0
    1.6576   -2.3359    1.0047 H   0  0  0  0  0  0  0  0  0  0  0  0
   -0.6440   -3.3122    1.2052 H   0  0  0  0  0  0  0  0  0  0  0  0
   -4.2498   -0.7431   -0.2117 H   0  0  0  0  0  0  0  0  0  0  0  0
   -3.8644    0.1976   -1.6776 H   0  0  0  0  0  0  0  0  0  0  0  0
   -5.3984    3.5257   -1.2520 H   0  0  0  0  0  0  0  0  0  0  0  0
   -5.7941    4.1475    0.4222 H   0  0  0  0  0  0  0  0  0  0  0  0
   -4.4647    4.9563   -0.5542 H   0  0  0  0  0  0  0  0  0  0  0  0
   -1.9187    4.2133   -1.9532 H   0  0  0  0  0  0  0  0  0  0  0  0
   -2.4673    5.0637   -0.4534 H   0  0  0  0  0  0  0  0  0  0  0  0
  2  1  1  1
  2  3  1  0
  3  4  2  0
  4  5  1  0
  5  6  1  0
  6  7  1  0
  7  8  2  0
  8  9  1  0
  9 10  2  0
 10 11  1  0
 10 12  1  0
 12 13  2  0
 13 14  1  0
 14 15  1  0
 15 16  3  0
 14 17  2  0
 17 18  1  0
 18 19  2  0
  5 20  2  0
 20 21  1  0
 21 22  2  0
 22 23  1  0
  2 24  1  0
 24 25  1  0
 25 26  2  0
 25 27  2  0
 25 28  1  0
 28 29  1  0
 28 30  1  1
 28 31  1  0
 31 32  1  0
 31 33  2  0
 33  2  1  0
 22  3  1  0
 19  7  1  0
 19 12  1  0
  1 34  1  0
  1 35  1  0
  1 36  1  0
  4 37  1  0
  6 38  1  0
  9 39  1  0
 13 40  1  0
 17 41  1  0
 20 42  1  0
 21 43  1  0
 24 44  1  0
 24 45  1  0
 29 46  1  0
 29 47  1  0
 29 48  1  0
 32 49  1  0
 32 50  1  0
M  END
$$$$
