
     RDKit          3D

 44 48  0  0  0  0  0  0  0  0999 V2000
   -0.9684   -1.6909    3.2095 N   0  0  0  0  0  0  0  0  0  0  0  0
   -2.3070   -2.0223    2.8812 C   0  0  0  0  0  0  0  0  0  0  0  0
   -2.9781   -2.6662    3.7055 O   0  0  0  0  0  0  0  0  0  0  0  0
   -2.8638   -1.6076    1.6012 C   0  0  0  0  0  0  0  0  0  0  0  0
   -4.1428   -1.8688    1.1811 C   0  0  0  0  0  0  0  0  0  0  0  0
   -4.3093   -1.3318   -0.0591 N   0  0  0  0  0  0  0  0  0  0  0  0
   -3.1476   -0.7440   -0.4049 C   0  0  0  0  0  0  0  0  0  0  0  0
   -2.7585   -0.0585   -1.5345 C   0  0  0  0  0  0  0  0  0  0  0  0
   -1.4703    0.4278   -1.5744 C   0  0  0  0  0  0  0  0  0  0  0  0
   -0.5863    0.2421   -0.5241 C   0  0  0  0  0  0  0  0  0  0  0  0
    0.7787    0.7512   -0.5515 C   0  0  0  0  0  0  0  0  0  0  0  0
    1.9378   -0.0276   -0.5031 C   0  0  0  0  0  0  0  0  0  0  0  0
    1.9260   -1.4844   -0.4190 C   0  0  0  0  0  0  0  0  0  0  0  0
    1.3913   -2.2861   -1.3967 C   0  0  0  0  0  0  0  0  0  0  0  0
    1.3937   -3.6574   -1.2923 C   0  0  0  0  0  0  0  0  0  0  0  0
    1.9540   -4.2292   -0.1652 C   0  0  0  0  0  0  0  0  0  0  0  0
    1.9831   -5.5766   -0.0112 F   0  0  0  0  0  0  0  0  0  0  0  0
    2.5006   -3.4718    0.8387 C   0  0  0  0  0  0  0  0  0  0  0  0
    2.4739   -2.1020    0.6874 C   0  0  0  0  0  0  0  0  0  0  0  0
    2.9912    0.8101   -0.5490 N   0  0  0  0  0  0  0  0  0  0  0  0
    2.4986    2.0719   -0.6235 C   0  0  0  0  0  0  0  0  0  0  0  0
    1.1546    2.0258   -0.6244 N   0  0  0  0  0  0  0  0  0  0  0  0
    0.2649    3.1523   -0.6920 C   0  0  0  0  0  0  0  0  0  0  0  0
    0.6602    4.2139    0.3446 C   0  0  0  0  0  0  0  0  0  0  0  0
    0.2516    5.2107   -0.6511 N   0  0  0  0  0  0  0  0  0  0  0  0
    0.6551    4.2338   -1.6699 C   0  0  0  0  0  0  0  0  0  0  0  0
   -1.0556   -0.4395    0.5371 N   0  0  0  0  0  0  0  0  0  0  0  0
   -2.2847   -0.9226    0.6149 N   0  0  0  0  0  0  0  0  0  0  0  0
   -0.7520   -0.6998    3.4305 H   0  0  0  0  0  0  0  0  0  0  0  0
   -0.2532   -2.4412    3.2191 H   0  0  0  0  0  0  0  0  0  0  0  0
   -4.9437   -2.3982    1.6774 H   0  0  0  0  0  0  0  0  0  0  0  0
   -3.3907    0.1226   -2.3862 H   0  0  0  0  0  0  0  0  0  0  0  0
   -1.0757    0.9823   -2.4269 H   0  0  0  0  0  0  0  0  0  0  0  0
    0.9488   -1.8219   -2.2891 H   0  0  0  0  0  0  0  0  0  0  0  0
    0.9853   -4.2981   -2.0364 H   0  0  0  0  0  0  0  0  0  0  0  0
    2.9389   -3.9551    1.7231 H   0  0  0  0  0  0  0  0  0  0  0  0
    2.8996   -1.4892    1.4683 H   0  0  0  0  0  0  0  0  0  0  0  0
    3.1140    2.9603   -0.6733 H   0  0  0  0  0  0  0  0  0  0  0  0
   -0.8002    2.9388   -0.7390 H   0  0  0  0  0  0  0  0  0  0  0  0
    1.7645    4.2553    0.4543 H   0  0  0  0  0  0  0  0  0  0  0  0
    0.0672    4.1975    1.2586 H   0  0  0  0  0  0  0  0  0  0  0  0
    0.8536    6.0536   -0.6167 H   0  0  0  0  0  0  0  0  0  0  0  0
    1.7316    4.3086   -1.8828 H   0  0  0  0  0  0  0  0  0  0  0  0
   -0.0309    4.3322   -2.5362 H   0  0  0  0  0  0  0  0  0  0  0  0
  1  2  1  0
  2  3  2  0
  2  4  1  0
  4  5  2  0
  5  6  1  0
  6  7  2  0
  7  8  1  0
  8  9  2  0
  9 10  1  0
 10 11  1  0
 11 12  2  0
 12 13  1  0
 13 14  2  0
 14 15  1  0
 15 16  2  0
 16 17  1  0
 16 18  1  0
 18 19  2  0
 12 20  1  0
 20 21  2  0
 21 22  1  0
 22 23  1  0
 23 24  1  0
 24 25  1  0
 25 26  1  0
 10 27  2  0
 27 28  1  0
 28  4  1  0
 28  7  1  0
 22 11  1  0
 26 23  1  0
 19 13  1  0
  1 29  1  0
  1 30  1  0
  5 31  1  0
  8 32  1  0
  9 33  1  0
 14 34  1  0
 15 35  1  0
 18 36  1  0
 19 37  1  0
 21 38  1  0
 23 39  1  0
 24 40  1  0
 24 41  1  0
 25 42  1  0
 26 43  1  0
 26 44  1  0
M  END
$$$$
