@<TRIPOS>MOLECULE
*****
 44 48 0 0 0
SMALL
GASTEIGER

@<TRIPOS>ATOM
      1 N          -0.9684   -1.6909    3.2095 N.am    1  UNL1       -0.3240
      2 C          -2.3070   -2.0223    2.8812 C.2     1  UNL1        0.2615
      3 O          -2.9781   -2.6662    3.7055 O.2     1  UNL1       -0.2687
      4 C          -2.8638   -1.6076    1.6012 C.ar    1  UNL1        0.1470
      5 C          -4.1428   -1.8688    1.1811 C.ar    1  UNL1        0.0605
      6 N          -4.3093   -1.3318   -0.0591 N.ar    1  UNL1       -0.2339
      7 C          -3.1476   -0.7440   -0.4049 C.ar    1  UNL1        0.1549
      8 C          -2.7585   -0.0585   -1.5345 C.ar    1  UNL1       -0.0153
      9 C          -1.4703    0.4278   -1.5744 C.ar    1  UNL1       -0.0290
     10 C          -0.5863    0.2421   -0.5241 C.ar    1  UNL1        0.1103
     11 C           0.7787    0.7512   -0.5515 C.ar    1  UNL1        0.0969
     12 C           1.9378   -0.0276   -0.5031 C.ar    1  UNL1        0.0982
     13 C           1.9260   -1.4844   -0.4190 C.ar    1  UNL1        0.0027
     14 C           1.3913   -2.2861   -1.3967 C.ar    1  UNL1       -0.0498
     15 C           1.3937   -3.6574   -1.2923 C.ar    1  UNL1       -0.0258
     16 C           1.9540   -4.2292   -0.1652 C.ar    1  UNL1        0.1234
     17 F           1.9831   -5.5766   -0.0112 F       1  UNL1       -0.2055
     18 C           2.5006   -3.4718    0.8387 C.ar    1  UNL1       -0.0258
     19 C           2.4739   -2.1020    0.6874 C.ar    1  UNL1       -0.0498
     20 N           2.9912    0.8101   -0.5490 N.ar    1  UNL1       -0.2351
     21 C           2.4986    2.0719   -0.6235 C.ar    1  UNL1        0.0974
     22 N           1.1546    2.0258   -0.6244 N.ar    1  UNL1       -0.3228
     23 C           0.2649    3.1523   -0.6920 C.3     1  UNL1        0.0609
     24 C           0.6602    4.2139    0.3446 C.3     1  UNL1        0.0180
     25 N           0.2516    5.2107   -0.6511 N.3     1  UNL1       -0.3120
     26 C           0.6551    4.2338   -1.6699 C.3     1  UNL1        0.0180
     27 N          -1.0556   -0.4395    0.5371 N.ar    1  UNL1       -0.1628
     28 N          -2.2847   -0.9226    0.6149 N.ar    1  UNL1       -0.2076
     29 H          -0.7520   -0.6998    3.4305 H       1  UNL1        0.1453
     30 H          -0.2532   -2.4412    3.2191 H       1  UNL1        0.1453
     31 H          -4.9437   -2.3982    1.6774 H       1  UNL1        0.0854
     32 H          -3.3907    0.1226   -2.3862 H       1  UNL1        0.0655
     33 H          -1.0757    0.9823   -2.4269 H       1  UNL1        0.0641
     34 H           0.9488   -1.8219   -2.2891 H       1  UNL1        0.0625
     35 H           0.9853   -4.2981   -2.0364 H       1  UNL1        0.0646
     36 H           2.9389   -3.9551    1.7231 H       1  UNL1        0.0646
     37 H           2.8996   -1.4892    1.4683 H       1  UNL1        0.0625
     38 H           3.1140    2.9603   -0.6733 H       1  UNL1        0.1029
     39 H          -0.8002    2.9388   -0.7390 H       1  UNL1        0.0553
     40 H           1.7645    4.2553    0.4543 H       1  UNL1        0.0445
     41 H           0.0672    4.1975    1.2586 H       1  UNL1        0.0445
     42 H           0.8536    6.0536   -0.6167 H       1  UNL1        0.1221
     43 H           1.7316    4.3086   -1.8828 H       1  UNL1        0.0445
     44 H          -0.0309    4.3322   -2.5362 H       1  UNL1        0.0445
@<TRIPOS>BOND
     1     1     2   am
     2     2     3    2
     3     2     4    1
     4     4     5   ar
     5     5     6   ar
     6     6     7   ar
     7     7     8   ar
     8     8     9   ar
     9     9    10   ar
    10    10    11    1
    11    11    12   ar
    12    12    13    1
    13    13    14   ar
    14    14    15   ar
    15    15    16   ar
    16    16    17    1
    17    16    18   ar
    18    18    19   ar
    19    12    20   ar
    20    20    21   ar
    21    21    22   ar
    22    22    23    1
    23    23    24    1
    24    24    25    1
    25    25    26    1
    26    10    27   ar
    27    27    28   ar
    28    28     4   ar
    29    28     7   ar
    30    22    11   ar
    31    26    23    1
    32    19    13   ar
    33     1    29    1
    34     1    30    1
    35     5    31    1
    36     8    32    1
    37     9    33    1
    38    14    34    1
    39    15    35    1
    40    18    36    1
    41    19    37    1
    42    21    38    1
    43    23    39    1
    44    24    40    1
    45    24    41    1
    46    25    42    1
    47    26    43    1
    48    26    44    1
