@<TRIPOS>MOLECULE
*****
 44 46 0 0 0
SMALL
GASTEIGER

@<TRIPOS>ATOM
      1 CL          0.6925    0.0000    0.0000 Cl      1  UNL1       -0.1454
      2 C          -5.2827   -1.9560   -0.4089 C.ar    2  UNL2       -0.0616
      3 C          -4.1645   -2.7278   -0.6049 C.ar    2  UNL2       -0.0600
      4 C          -2.8972   -2.2279   -0.3560 C.ar    2  UNL2       -0.0406
      5 C          -2.6801   -0.9153    0.1074 C.ar    2  UNL2        0.0303
      6 N          -1.3826   -0.4440    0.3289 N.pl3   2  UNL2       -0.3201
      7 C          -0.3153   -1.4342   -0.0273 C.3     2  UNL2        0.0376
      8 C           1.0422   -0.9109    0.1614 C.ar    2  UNL2       -0.0296
      9 C           1.7613   -1.0942    1.3511 C.ar    2  UNL2       -0.0565
     10 C           3.0375   -0.6073    1.5268 C.ar    2  UNL2       -0.0537
     11 C           3.6625    0.0925    0.5132 C.ar    2  UNL2       -0.0179
     12 C           4.9461    0.5923    0.6658 C.ar    2  UNL2       -0.0540
     13 C           5.5095    1.2751   -0.3718 C.ar    2  UNL2       -0.0612
     14 C           4.8537    1.4887   -1.5677 C.ar    2  UNL2       -0.0612
     15 C           3.5941    0.9921   -1.7030 C.ar    2  UNL2       -0.0540
     16 C           2.9920    0.2899   -0.6595 C.ar    2  UNL2       -0.0176
     17 C           1.7076   -0.2063   -0.8217 C.ar    2  UNL2       -0.0493
     18 C          -0.8657    0.7667    0.7985 C.3     2  UNL2        0.0488
     19 C          -1.5959    1.8324    1.4975 C.3     2  UNL2        0.0157
     20 N          -1.6250    2.5607    0.2458 N.3     2  UNL2       -0.3124
     21 C          -0.5068    1.7878   -0.2953 C.3     2  UNL2        0.0157
     22 C          -3.8432   -0.2020    0.2796 C.ar    2  UNL2       -0.0406
     23 C          -5.1133   -0.6832    0.0372 C.ar    2  UNL2       -0.0600
     24 H          -0.6925    0.0000    0.0000 H       1  UNL1        0.1454
     25 H          -6.2776   -2.3193   -0.5939 H       2  UNL2        0.0618
     26 H          -4.2240   -3.7530   -0.9598 H       2  UNL2        0.0618
     27 H          -2.0504   -2.8761   -0.5330 H       2  UNL2        0.0636
     28 H          -0.5005   -1.6545   -1.0929 H       2  UNL2        0.0513
     29 H          -0.4889   -2.3735    0.5337 H       2  UNL2        0.0513
     30 H           1.2458   -1.6501    2.1366 H       2  UNL2        0.0621
     31 H           3.5809   -0.7563    2.4510 H       2  UNL2        0.0624
     32 H           5.4368    0.4078    1.6195 H       2  UNL2        0.0624
     33 H           6.5240    1.6645   -0.2377 H       2  UNL2        0.0618
     34 H           5.3420    2.0442   -2.3806 H       2  UNL2        0.0618
     35 H           3.0467    1.1460   -2.6432 H       2  UNL2        0.0624
     36 H           1.2151   -0.0199   -1.7875 H       2  UNL2        0.0627
     37 H           0.1137    0.6253    1.3711 H       2  UNL2        0.0525
     38 H          -2.4822    1.6858    2.0750 H       2  UNL2        0.0443
     39 H          -0.9173    2.4796    2.1902 H       2  UNL2        0.0443
     40 H          -2.4760    2.5184   -0.3035 H       2  UNL2        0.1221
     41 H          -0.5997    1.4629   -1.3177 H       2  UNL2        0.0443
     42 H           0.4266    2.3503   -0.1372 H       2  UNL2        0.0443
     43 H          -3.7859    0.8005    0.6071 H       2  UNL2        0.0636
     44 H          -5.9631   -0.0518    0.2014 H       2  UNL2        0.0618
@<TRIPOS>BOND
     1     2     3   ar
     2     3     4   ar
     3     4     5   ar
     4     5     6    1
     5     6     7    1
     6     7     8    1
     7     8     9   ar
     8     9    10   ar
     9    10    11   ar
    10    11    12   ar
    11    12    13   ar
    12    13    14   ar
    13    14    15   ar
    14    15    16   ar
    15    16    17   ar
    16     6    18    1
    17    18    19    1
    18    19    20    1
    19    20    21    1
    20     5    22   ar
    21    22    23   ar
    22    23     2   ar
    23    17     8   ar
    24    21    18    1
    25    16    11   ar
    26     1    24    1
    27     2    25    1
    28     3    26    1
    29     4    27    1
    30     7    28    1
    31     7    29    1
    32     9    30    1
    33    10    31    1
    34    12    32    1
    35    13    33    1
    36    14    34    1
    37    15    35    1
    38    17    36    1
    39    18    37    1
    40    19    38    1
    41    19    39    1
    42    20    40    1
    43    21    41    1
    44    21    42    1
    45    22    43    1
    46    23    44    1
