
     RDKit          3D

 55 58  0  0  0  0  0  0  0  0999 V2000
   -3.1595   -0.8576    0.1065 C   0  0  1  0  0  0  0  0  0  0  0  0
   -3.3390   -0.8851   -1.3985 C   0  0  0  0  0  0  0  0  0  0  0  0
   -2.1607   -0.0160   -1.8690 C   0  0  0  0  0  0  0  0  0  0  0  0
   -1.1012   -0.5625   -0.9883 C   0  0  1  0  0  0  0  0  0  0  0  0
    0.1783    0.1560   -0.8857 C   0  0  2  0  0  0  0  0  0  0  0  0
    0.8624    0.0973   -2.2588 C   0  0  0  0  0  0  0  0  0  0  0  0
    2.0377    1.0410   -2.1424 C   0  0  0  0  0  0  0  0  0  0  0  0
    2.9156    0.6155   -1.0205 C   0  0  0  0  0  0  0  0  0  0  0  0
    4.2338    0.8127   -1.1629 C   0  0  0  0  0  0  0  0  0  0  0  0
    5.1692    0.4183   -0.0963 C   0  0  0  0  0  0  0  0  0  0  0  0
    6.3554    0.8395    0.0303 O   0  0  0  0  0  0  0  0  0  0  0  0
    4.7410   -0.5641    0.9634 C   0  0  0  0  0  0  0  0  0  0  0  0
    3.3736   -1.1222    0.6438 C   0  0  0  0  0  0  0  0  0  0  0  0
    2.4125   -0.0022    0.2192 C   0  0  1  0  0  0  0  0  0  0  0  0
    2.4889    1.0214    1.3065 C   0  0  0  0  0  0  0  0  0  0  0  0
    1.0870   -0.6588    0.0247 C   0  0  1  0  0  0  0  0  0  0  0  0
    0.4592   -1.1461    1.2754 C   0  0  1  0  0  0  0  0  0  0  0  0
    0.6205   -0.3061    2.3887 O   0  0  0  0  0  0  0  0  0  0  0  0
   -0.9866   -1.4665    1.2058 C   0  0  0  0  0  0  0  0  0  0  0  0
   -1.7511   -0.4642    0.3781 C   0  0  2  0  0  0  0  0  0  0  0  0
   -1.6949    0.9113    0.9586 C   0  0  0  0  0  0  0  0  0  0  0  0
   -4.0963    0.1767    0.6247 C   0  0  0  0  0  0  0  0  0  0  0  0
   -4.7212    0.6885   -0.3164 O   0  0  0  0  0  0  0  0  0  0  0  0
   -4.9893    1.1832    1.2668 C   0  0  0  0  0  0  0  0  0  0  0  0
   -5.7658    1.8444    0.3444 O   0  0  0  0  0  0  0  0  0  0  0  0
   -3.4462   -1.8221    0.5726 H   0  0  0  0  0  0  0  0  0  0  0  0
   -4.3049   -0.5206   -1.7465 H   0  0  0  0  0  0  0  0  0  0  0  0
   -3.1438   -1.9144   -1.7955 H   0  0  0  0  0  0  0  0  0  0  0  0
   -1.9582   -0.3307   -2.9149 H   0  0  0  0  0  0  0  0  0  0  0  0
   -2.3685    1.0464   -1.7594 H   0  0  0  0  0  0  0  0  0  0  0  0
   -0.9274   -1.6219   -1.2524 H   0  0  0  0  0  0  0  0  0  0  0  0
    0.1060    1.2082   -0.6240 H   0  0  0  0  0  0  0  0  0  0  0  0
    1.2794   -0.9296   -2.3795 H   0  0  0  0  0  0  0  0  0  0  0  0
    0.1779    0.4160   -3.0450 H   0  0  0  0  0  0  0  0  0  0  0  0
    1.6704    2.0800   -1.9732 H   0  0  0  0  0  0  0  0  0  0  0  0
    2.5803    0.9640   -3.1122 H   0  0  0  0  0  0  0  0  0  0  0  0
    4.7108    1.2592   -2.0351 H   0  0  0  0  0  0  0  0  0  0  0  0
    5.4794   -1.3735    0.9744 H   0  0  0  0  0  0  0  0  0  0  0  0
    4.7187   -0.1013    1.9623 H   0  0  0  0  0  0  0  0  0  0  0  0
    3.0022   -1.6241    1.5588 H   0  0  0  0  0  0  0  0  0  0  0  0
    3.5123   -1.8703   -0.1680 H   0  0  0  0  0  0  0  0  0  0  0  0
    1.6566    1.7311    1.3568 H   0  0  0  0  0  0  0  0  0  0  0  0
    2.7769    0.5875    2.3100 H   0  0  0  0  0  0  0  0  0  0  0  0
    3.3863    1.6753    1.0872 H   0  0  0  0  0  0  0  0  0  0  0  0
    1.3149   -1.5844   -0.5846 H   0  0  0  0  0  0  0  0  0  0  0  0
    0.9863   -2.0862    1.5897 H   0  0  0  0  0  0  0  0  0  0  0  0
    0.1691   -0.7705    3.1382 H   0  0  0  0  0  0  0  0  0  0  0  0
   -1.4385   -1.4565    2.2189 H   0  0  0  0  0  0  0  0  0  0  0  0
   -1.1598   -2.4628    0.7650 H   0  0  0  0  0  0  0  0  0  0  0  0
   -2.2650    0.8552    1.9316 H   0  0  0  0  0  0  0  0  0  0  0  0
   -0.6909    1.2545    1.2467 H   0  0  0  0  0  0  0  0  0  0  0  0
   -2.1857    1.6276    0.2982 H   0  0  0  0  0  0  0  0  0  0  0  0
   -5.6704    0.6015    1.9529 H   0  0  0  0  0  0  0  0  0  0  0  0
   -4.4322    1.8724    1.9063 H   0  0  0  0  0  0  0  0  0  0  0  0
   -6.7055    1.5359    0.3102 H   0  0  0  0  0  0  0  0  0  0  0  0
  1  2  1  0
  2  3  1  0
  3  4  1  0
  4  5  1  0
  5  6  1  0
  6  7  1  0
  7  8  1  0
  8  9  2  0
  9 10  1  0
 10 11  2  0
 10 12  1  0
 12 13  1  0
 13 14  1  0
 14 15  1  1
 14 16  1  0
 16 17  1  0
 17 18  1  0
 17 19  1  0
 19 20  1  0
 20 21  1  1
  1 22  1  0
 22 23  2  0
 22 24  1  0
 24 25  1  0
 20  1  1  0
 20  4  1  0
 16  5  1  0
 14  8  1  0
  1 26  1  1
  2 27  1  0
  2 28  1  0
  3 29  1  0
  3 30  1  0
  4 31  1  6
  5 32  1  1
  6 33  1  0
  6 34  1  0
  7 35  1  0
  7 36  1  0
  9 37  1  0
 12 38  1  0
 12 39  1  0
 13 40  1  0
 13 41  1  0
 15 42  1  0
 15 43  1  0
 15 44  1  0
 16 45  1  6
 17 46  1  1
 18 47  1  0
 19 48  1  0
 19 49  1  0
 21 50  1  0
 21 51  1  0
 21 52  1  0
 24 53  1  0
 24 54  1  0
 25 55  1  0
M  END
$$$$
