@<TRIPOS>MOLECULE
*****
 55 58 0 0 0
SMALL
GASTEIGER

@<TRIPOS>ATOM
      1 C          -3.1595   -0.8576    0.1065 C.3     1  UNL1        0.0255
      2 C          -3.3390   -0.8851   -1.3985 C.3     1  UNL1       -0.0426
      3 C          -2.1607   -0.0160   -1.8690 C.3     1  UNL1       -0.0488
      4 C          -1.1012   -0.5625   -0.9883 C.3     1  UNL1       -0.0317
      5 C           0.1783    0.1560   -0.8857 C.3     1  UNL1       -0.0314
      6 C           0.8624    0.0973   -2.2588 C.3     1  UNL1       -0.0459
      7 C           2.0377    1.0410   -2.1424 C.3     1  UNL1       -0.0305
      8 C           2.9156    0.6155   -1.0205 C.2     1  UNL1       -0.0600
      9 C           4.2338    0.8127   -1.1629 C.2     1  UNL1       -0.0194
     10 C           5.1692    0.4183   -0.0963 C.2     1  UNL1        0.1561
     11 O           6.3554    0.8395    0.0303 O.2     1  UNL1       -0.2927
     12 C           4.7410   -0.5641    0.9634 C.3     1  UNL1        0.0107
     13 C           3.3736   -1.1222    0.6438 C.3     1  UNL1       -0.0366
     14 C           2.4125   -0.0022    0.2192 C.3     1  UNL1       -0.0049
     15 C           2.4889    1.0214    1.3065 C.3     1  UNL1       -0.0555
     16 C           1.0870   -0.6588    0.0247 C.3     1  UNL1       -0.0028
     17 C           0.4592   -1.1461    1.2754 C.3     1  UNL1        0.0596
     18 O           0.6205   -0.3061    2.3887 O.3     1  UNL1       -0.3915
     19 C          -0.9866   -1.4665    1.2058 C.3     1  UNL1       -0.0202
     20 C          -1.7511   -0.4642    0.3781 C.3     1  UNL1       -0.0171
     21 C          -1.6949    0.9113    0.9586 C.3     1  UNL1       -0.0586
     22 C          -4.0963    0.1767    0.6247 C.2     1  UNL1        0.1620
     23 O          -4.7212    0.6885   -0.3164 O.2     1  UNL1       -0.2947
     24 C          -4.9893    1.1832    1.2668 C.3     1  UNL1        0.1025
     25 O          -5.7658    1.8444    0.3444 O.3     1  UNL1       -0.3875
     26 H          -3.4462   -1.8221    0.5726 H       1  UNL1        0.0383
     27 H          -4.3049   -0.5206   -1.7465 H       1  UNL1        0.0272
     28 H          -3.1438   -1.9144   -1.7955 H       1  UNL1        0.0272
     29 H          -1.9582   -0.3307   -2.9149 H       1  UNL1        0.0268
     30 H          -2.3685    1.0464   -1.7594 H       1  UNL1        0.0268
     31 H          -0.9274   -1.6219   -1.2524 H       1  UNL1        0.0309
     32 H           0.1060    1.2082   -0.6240 H       1  UNL1        0.0307
     33 H           1.2794   -0.9296   -2.3795 H       1  UNL1        0.0271
     34 H           0.1779    0.4160   -3.0450 H       1  UNL1        0.0271
     35 H           1.6704    2.0800   -1.9732 H       1  UNL1        0.0310
     36 H           2.5803    0.9640   -3.1122 H       1  UNL1        0.0310
     37 H           4.7108    1.2592   -2.0351 H       1  UNL1        0.0652
     38 H           5.4794   -1.3735    0.9744 H       1  UNL1        0.0345
     39 H           4.7187   -0.1013    1.9623 H       1  UNL1        0.0345
     40 H           3.0022   -1.6241    1.5588 H       1  UNL1        0.0278
     41 H           3.5123   -1.8703   -0.1680 H       1  UNL1        0.0278
     42 H           1.6566    1.7311    1.3568 H       1  UNL1        0.0238
     43 H           2.7769    0.5875    2.3100 H       1  UNL1        0.0238
     44 H           3.3863    1.6753    1.0872 H       1  UNL1        0.0238
     45 H           1.3149   -1.5844   -0.5846 H       1  UNL1        0.0337
     46 H           0.9863   -2.0862    1.5897 H       1  UNL1        0.0596
     47 H           0.1691   -0.7705    3.1382 H       1  UNL1        0.2098
     48 H          -1.4385   -1.4565    2.2189 H       1  UNL1        0.0296
     49 H          -1.1598   -2.4628    0.7650 H       1  UNL1        0.0296
     50 H          -2.2650    0.8552    1.9316 H       1  UNL1        0.0235
     51 H          -0.6909    1.2545    1.2467 H       1  UNL1        0.0235
     52 H          -2.1857    1.6276    0.2982 H       1  UNL1        0.0235
     53 H          -5.6704    0.6015    1.9529 H       1  UNL1        0.0636
     54 H          -4.4322    1.8724    1.9063 H       1  UNL1        0.0636
     55 H          -6.7055    1.5359    0.3102 H       1  UNL1        0.2100
@<TRIPOS>BOND
     1     1     2    1
     2     2     3    1
     3     3     4    1
     4     4     5    1
     5     5     6    1
     6     6     7    1
     7     7     8    1
     8     8     9    2
     9     9    10    1
    10    10    11    2
    11    10    12    1
    12    12    13    1
    13    13    14    1
    14    14    15    1
    15    14    16    1
    16    16    17    1
    17    17    18    1
    18    17    19    1
    19    19    20    1
    20    20    21    1
    21     1    22    1
    22    22    23    2
    23    22    24    1
    24    24    25    1
    25    20     1    1
    26    20     4    1
    27    16     5    1
    28    14     8    1
    29     1    26    1
    30     2    27    1
    31     2    28    1
    32     3    29    1
    33     3    30    1
    34     4    31    1
    35     5    32    1
    36     6    33    1
    37     6    34    1
    38     7    35    1
    39     7    36    1
    40     9    37    1
    41    12    38    1
    42    12    39    1
    43    13    40    1
    44    13    41    1
    45    15    42    1
    46    15    43    1
    47    15    44    1
    48    16    45    1
    49    17    46    1
    50    18    47    1
    51    19    48    1
    52    19    49    1
    53    21    50    1
    54    21    51    1
    55    21    52    1
    56    24    53    1
    57    24    54    1
    58    25    55    1
