@<TRIPOS>MOLECULE
*****
 71 73 0 0 0
SMALL
GASTEIGER

@<TRIPOS>ATOM
      1 C           0.4415    2.4865    0.0236 C.3     0  UNK0        0.0933
      2 C           0.4986    3.7803   -0.7343 C.3     0  UNK0       -0.0261
      3 C           1.2191    4.8573    0.0672 C.3     0  UNK0       -0.0448
      4 C           1.2691    6.1596   -0.7122 C.3     0  UNK0       -0.0626
      5 C           0.3634    5.1423    1.3070 C.3     0  UNK0       -0.0626
      6 N           1.6570    1.8873    0.3838 N.3     0  UNK0       -0.2108
      7 P           2.8241    1.5335   -0.8013 P.3     0  UNK0        0.4084
      8 O           2.0859    1.0752   -2.2451 O.3     0  UNK0       -0.3122
      9 O           3.8275    2.6478   -1.0206 O.2     0  UNK0       -0.2399
     10 O           3.7547    0.1921   -0.3033 O.3     0  UNK0       -0.2636
     11 C           3.0288   -0.9730   -0.2644 C.3     0  UNK0        0.1977
     12 O           2.9672   -1.4992    0.9988 O.3     0  UNK0       -0.3426
     13 C           4.1100   -2.0401    1.5028 C.3     0  UNK0        0.0873
     14 C           3.7134   -3.2913    2.2664 C.3     0  UNK0       -0.0361
     15 C           5.2278   -2.3560    0.6075 C.3     0  UNK0        0.1095
     16 O           6.4149   -1.7168    1.0424 O.3     0  UNK0       -0.3866
     17 C           5.0797   -2.0479   -0.8446 C.3     0  UNK0        0.1140
     18 O           5.6650   -3.0139   -1.6508 O.3     0  UNK0       -0.3864
     19 C           3.5854   -2.0626   -1.1544 C.3     0  UNK0        0.1346
     20 O           3.1204   -3.2839   -0.6638 O.3     0  UNK0       -0.3841
     21 C          -0.4935    1.5057   -0.5690 C.2     0  UNK0        0.2013
     22 O          -0.4716    1.0612   -1.8977 O.2     0  UNK0       -0.4945
     23 N          -1.4221    0.9746    0.1145 N.2     1  TRP1       -0.2383
     24 CA         -2.3884    0.0013   -0.3815 C.3     1  TRP1        0.1544
     25 CB         -2.6962   -0.8934    0.7818 C.3     1  TRP1        0.0073
     26 CG         -3.6625   -1.9513    0.5325 C.ar    1  TRP1       -0.0198
     27 CD1        -3.2594   -3.2346    0.1917 C.ar    1  TRP1        0.0060
     28 NE1        -4.3592   -4.0136   -0.0111 N.ar    1  TRP1       -0.3604
     29 CE2        -5.4854   -3.3028    0.1813 C.ar    1  TRP1        0.0467
     30 CZ2        -6.8451   -3.5285    0.1389 C.ar    1  TRP1       -0.0378
     31 CH2        -7.7706   -2.5269    0.4214 C.ar    1  TRP1       -0.0598
     32 CZ3        -7.3302   -1.2665    0.7552 C.ar    1  TRP1       -0.0611
     33 CE3        -5.9729   -1.0777    0.7870 C.ar    1  TRP1       -0.0523
     34 CD2        -5.0275   -2.0457    0.5127 C.ar    1  TRP1        0.0029
     35 C          -3.5471    0.7181   -0.9328 C.2     1  TRP1        0.3299
     36 O          -3.8844    2.0517   -0.8322 O.3     1  TRP1       -0.4791
     37 OXT        -4.5213    0.2911   -1.6350 O.2     1  TRP1       -0.2486
     38 H          -0.0691    2.7867    1.0102 H       0  UNK0        0.0562
     39 H          -0.5457    4.1345   -0.8546 H       0  UNK0        0.0288
     40 H           0.9441    3.7085   -1.7282 H       0  UNK0        0.0288
     41 H           2.2063    4.5384    0.4327 H       0  UNK0        0.0296
     42 H           0.3242    6.2845   -1.2631 H       0  UNK0        0.0232
     43 H           2.1565    6.1247   -1.3736 H       0  UNK0        0.0232
     44 H           1.4337    6.9827    0.0173 H       0  UNK0        0.0232
     45 H           0.6896    6.1457    1.6484 H       0  UNK0        0.0232
     46 H           0.5652    4.4199    2.1241 H       0  UNK0        0.0232
     47 H          -0.7171    5.1535    1.0669 H       0  UNK0        0.0232
     48 H           1.5476    1.1053    1.0331 H       0  UNK0        0.1344
     49 H           2.6487    0.5034   -2.8035 H       0  UNK0        0.2210
     50 H           1.9955   -0.7509   -0.5801 H       0  UNK0        0.0942
     51 H           4.4595   -1.3235    2.3021 H       0  UNK0        0.0621
     52 H           4.0684   -3.3042    3.3051 H       0  UNK0        0.0255
     53 H           4.1333   -4.2155    1.7775 H       0  UNK0        0.0255
     54 H           2.6179   -3.4675    2.2815 H       0  UNK0        0.0255
     55 H           5.5134   -3.4497    0.6640 H       0  UNK0        0.0646
     56 H           6.8873   -1.2729    0.3175 H       0  UNK0        0.2100
     57 H           5.5216   -1.0544   -1.0376 H       0  UNK0        0.0648
     58 H           5.3563   -2.8933   -2.5808 H       0  UNK0        0.2100
     59 H           3.3798   -1.9220   -2.2204 H       0  UNK0        0.0671
     60 H           2.2325   -3.2497   -0.2738 H       0  UNK0        0.2101
     61 H          -1.3083    0.9930   -2.4645 H       0  UNK0        0.2934
     62 HA         -1.9537   -0.5863   -1.2245 H       1  TRP1        0.0665
     63 HB1        -1.7101   -1.2940    1.1326 H       1  TRP1        0.0340
     64 HB2        -3.0246   -0.2031    1.6098 H       1  TRP1        0.0340
     65 HD1        -2.2676   -3.6873    0.0684 H       1  TRP1        0.0810
     66 HE1        -4.4092   -5.0342   -0.2816 H       1  TRP1        0.1653
     67 HZ2        -7.1917   -4.5287   -0.1258 H       1  TRP1        0.0638
     68 HH2        -8.8460   -2.7114    0.3862 H       1  TRP1        0.0618
     69 HZ3        -8.0165   -0.4710    0.9793 H       1  TRP1        0.0618
     70 HE3        -5.6314   -0.0707    1.0537 H       1  TRP1        0.0624
     71 H          -4.7063    2.3697   -0.3608 H       1  TRP1        0.2951
@<TRIPOS>BOND
     1     1     2    1
     2     2     3    1
     3     3     4    1
     4     3     5    1
     5     1     6    1
     6     6     7    1
     7     7     8    1
     8     7     9    2
     9     7    10    1
    10    10    11    1
    11    11    12    1
    12    12    13    1
    13    13    14    1
    14    13    15    1
    15    15    16    1
    16    15    17    1
    17    17    18    1
    18    17    19    1
    19    19    20    1
    20     1    21    1
    21    21    22    1
    22    21    23    2
    23    23    24    1
    24    24    25    1
    25    25    26    1
    26    26    27   ar
    27    27    28   ar
    28    28    29   ar
    29    29    30   ar
    30    30    31   ar
    31    31    32   ar
    32    32    33   ar
    33    33    34   ar
    34    24    35    1
    35    35    36    1
    36    35    37    2
    37    19    11    1
    38    34    26   ar
    39    34    29   ar
    40     1    38    1
    41     2    39    1
    42     2    40    1
    43     3    41    1
    44     4    42    1
    45     4    43    1
    46     4    44    1
    47     5    45    1
    48     5    46    1
    49     5    47    1
    50     6    48    1
    51     8    49    1
    52    11    50    1
    53    13    51    1
    54    14    52    1
    55    14    53    1
    56    14    54    1
    57    15    55    1
    58    16    56    1
    59    17    57    1
    60    18    58    1
    61    19    59    1
    62    20    60    1
    63    22    61    1
    64    24    62    1
    65    25    63    1
    66    25    64    1
    67    27    65    1
    68    28    66    1
    69    30    67    1
    70    31    68    1
    71    32    69    1
    72    33    70    1
    73    36    71    1
