
     RDKit          3D

 71 73  0  0  0  0  0  0  0  0999 V2000
    0.4415    2.4865    0.0236 C   0  0  2  0  0  0  0  0  0  0  0  0
    0.4986    3.7803   -0.7343 C   0  0  0  0  0  0  0  0  0  0  0  0
    1.2191    4.8573    0.0672 C   0  0  0  0  0  0  0  0  0  0  0  0
    1.2691    6.1596   -0.7122 C   0  0  0  0  0  0  0  0  0  0  0  0
    0.3634    5.1423    1.3070 C   0  0  0  0  0  0  0  0  0  0  0  0
    1.6570    1.8873    0.3838 N   0  0  0  0  0  0  0  0  0  0  0  0
    2.8241    1.5335   -0.8013 P   0  0  0  0  0  0  0  0  0  0  0  0
    2.0859    1.0752   -2.2451 O   0  0  0  0  0  0  0  0  0  0  0  0
    3.8275    2.6478   -1.0206 O   0  0  0  0  0  0  0  0  0  0  0  0
    3.7547    0.1921   -0.3033 O   0  0  0  0  0  0  0  0  0  0  0  0
    3.0288   -0.9730   -0.2644 C   0  0  2  0  0  0  0  0  0  0  0  0
    2.9672   -1.4992    0.9988 O   0  0  0  0  0  0  0  0  0  0  0  0
    4.1100   -2.0401    1.5028 C   0  0  1  0  0  0  0  0  0  0  0  0
    3.7134   -3.2913    2.2664 C   0  0  0  0  0  0  0  0  0  0  0  0
    5.2278   -2.3560    0.6075 C   0  0  2  0  0  0  0  0  0  0  0  0
    6.4149   -1.7168    1.0424 O   0  0  0  0  0  0  0  0  0  0  0  0
    5.0797   -2.0479   -0.8446 C   0  0  1  0  0  0  0  0  0  0  0  0
    5.6650   -3.0139   -1.6508 O   0  0  0  0  0  0  0  0  0  0  0  0
    3.5854   -2.0626   -1.1544 C   0  0  1  0  0  0  0  0  0  0  0  0
    3.1204   -3.2839   -0.6638 O   0  0  0  0  0  0  0  0  0  0  0  0
   -0.4935    1.5057   -0.5690 C   0  0  0  0  0  0  0  0  0  0  0  0
   -0.4716    1.0612   -1.8977 O   0  0  0  0  0  0  0  0  0  0  0  0
   -1.4221    0.9746    0.1145 N   0  0  0  0  0  0  0  0  0  0  0  0
   -2.3884    0.0013   -0.3815 C   0  0  1  0  0  0  0  0  0  0  0  0
   -2.6962   -0.8934    0.7818 C   0  0  0  0  0  0  0  0  0  0  0  0
   -3.6625   -1.9513    0.5325 C   0  0  0  0  0  0  0  0  0  0  0  0
   -3.2594   -3.2346    0.1917 C   0  0  0  0  0  0  0  0  0  0  0  0
   -4.3592   -4.0136   -0.0111 N   0  0  0  0  0  0  0  0  0  0  0  0
   -5.4854   -3.3028    0.1813 C   0  0  0  0  0  0  0  0  0  0  0  0
   -6.8451   -3.5285    0.1389 C   0  0  0  0  0  0  0  0  0  0  0  0
   -7.7706   -2.5269    0.4214 C   0  0  0  0  0  0  0  0  0  0  0  0
   -7.3302   -1.2665    0.7552 C   0  0  0  0  0  0  0  0  0  0  0  0
   -5.9729   -1.0777    0.7870 C   0  0  0  0  0  0  0  0  0  0  0  0
   -5.0275   -2.0457    0.5127 C   0  0  0  0  0  0  0  0  0  0  0  0
   -3.5471    0.7181   -0.9328 C   0  0  0  0  0  0  0  0  0  0  0  0
   -3.8844    2.0517   -0.8322 O   0  0  0  0  0  0  0  0  0  0  0  0
   -4.5213    0.2911   -1.6350 O   0  0  0  0  0  0  0  0  0  0  0  0
   -0.0691    2.7867    1.0102 H   0  0  0  0  0  0  0  0  0  0  0  0
   -0.5457    4.1345   -0.8546 H   0  0  0  0  0  0  0  0  0  0  0  0
    0.9441    3.7085   -1.7282 H   0  0  0  0  0  0  0  0  0  0  0  0
    2.2063    4.5384    0.4327 H   0  0  0  0  0  0  0  0  0  0  0  0
    0.3242    6.2845   -1.2631 H   0  0  0  0  0  0  0  0  0  0  0  0
    2.1565    6.1247   -1.3736 H   0  0  0  0  0  0  0  0  0  0  0  0
    1.4337    6.9827    0.0173 H   0  0  0  0  0  0  0  0  0  0  0  0
    0.6896    6.1457    1.6484 H   0  0  0  0  0  0  0  0  0  0  0  0
    0.5652    4.4199    2.1241 H   0  0  0  0  0  0  0  0  0  0  0  0
   -0.7171    5.1535    1.0669 H   0  0  0  0  0  0  0  0  0  0  0  0
    1.5476    1.1053    1.0331 H   0  0  0  0  0  0  0  0  0  0  0  0
    2.6487    0.5034   -2.8035 H   0  0  0  0  0  0  0  0  0  0  0  0
    1.9955   -0.7509   -0.5801 H   0  0  0  0  0  0  0  0  0  0  0  0
    4.4595   -1.3235    2.3021 H   0  0  0  0  0  0  0  0  0  0  0  0
    4.0684   -3.3042    3.3051 H   0  0  0  0  0  0  0  0  0  0  0  0
    4.1333   -4.2155    1.7775 H   0  0  0  0  0  0  0  0  0  0  0  0
    2.6179   -3.4675    2.2815 H   0  0  0  0  0  0  0  0  0  0  0  0
    5.5134   -3.4497    0.6640 H   0  0  0  0  0  0  0  0  0  0  0  0
    6.8873   -1.2729    0.3175 H   0  0  0  0  0  0  0  0  0  0  0  0
    5.5216   -1.0544   -1.0376 H   0  0  0  0  0  0  0  0  0  0  0  0
    5.3563   -2.8933   -2.5808 H   0  0  0  0  0  0  0  0  0  0  0  0
    3.3798   -1.9220   -2.2204 H   0  0  0  0  0  0  0  0  0  0  0  0
    2.2325   -3.2497   -0.2738 H   0  0  0  0  0  0  0  0  0  0  0  0
   -1.3083    0.9930   -2.4645 H   0  0  0  0  0  0  0  0  0  0  0  0
   -1.9537   -0.5863   -1.2245 H   0  0  0  0  0  0  0  0  0  0  0  0
   -1.7101   -1.2940    1.1326 H   0  0  0  0  0  0  0  0  0  0  0  0
   -3.0246   -0.2031    1.6098 H   0  0  0  0  0  0  0  0  0  0  0  0
   -2.2676   -3.6873    0.0684 H   0  0  0  0  0  0  0  0  0  0  0  0
   -4.4092   -5.0342   -0.2816 H   0  0  0  0  0  0  0  0  0  0  0  0
   -7.1917   -4.5287   -0.1258 H   0  0  0  0  0  0  0  0  0  0  0  0
   -8.8460   -2.7114    0.3862 H   0  0  0  0  0  0  0  0  0  0  0  0
   -8.0165   -0.4710    0.9793 H   0  0  0  0  0  0  0  0  0  0  0  0
   -5.6314   -0.0707    1.0537 H   0  0  0  0  0  0  0  0  0  0  0  0
   -4.7063    2.3697   -0.3608 H   0  0  0  0  0  0  0  0  0  0  0  0
  1  2  1  0
  2  3  1  0
  3  4  1  0
  3  5  1  0
  1  6  1  0
  6  7  1  0
  7  8  1  0
  7  9  2  0
  7 10  1  0
 10 11  1  0
 11 12  1  0
 12 13  1  0
 13 14  1  0
 13 15  1  0
 15 16  1  0
 15 17  1  0
 17 18  1  0
 17 19  1  0
 19 20  1  0
  1 21  1  0
 21 22  1  0
 21 23  2  3
 23 24  1  0
 24 25  1  0
 25 26  1  0
 26 27  2  0
 27 28  1  0
 28 29  1  0
 29 30  2  0
 30 31  1  0
 31 32  2  0
 32 33  1  0
 33 34  2  0
 24 35  1  0
 35 36  1  0
 35 37  2  0
 19 11  1  0
 34 26  1  0
 34 29  1  0
  1 38  1  1
  2 39  1  0
  2 40  1  0
  3 41  1  0
  4 42  1  0
  4 43  1  0
  4 44  1  0
  5 45  1  0
  5 46  1  0
  5 47  1  0
  6 48  1  0
  8 49  1  0
 11 50  1  6
 13 51  1  1
 14 52  1  0
 14 53  1  0
 14 54  1  0
 15 55  1  6
 16 56  1  0
 17 57  1  1
 18 58  1  0
 19 59  1  6
 20 60  1  0
 22 61  1  0
 24 62  1  6
 25 63  1  0
 25 64  1  0
 27 65  1  0
 28 66  1  0
 30 67  1  0
 31 68  1  0
 32 69  1  0
 33 70  1  0
 36 71  1  0
M  END
$$$$
