@<TRIPOS>MOLECULE
*****
 59 63 0 0 0
SMALL
GASTEIGER

@<TRIPOS>ATOM
      1 O           9.2374    0.7285    1.3282 O.2     1  UNL1       -0.2510
      2 C           9.3121   -0.0240    0.3324 C.2     1  UNL1        0.3053
      3 O          10.5135   -0.6441    0.0541 O.3     1  UNL1       -0.4806
      4 C           8.1323   -0.2449   -0.5279 C.3     1  UNL1        0.0529
      5 C           6.9917   -0.7398    0.3361 C.3     1  UNL1        0.0099
      6 C           6.6103    0.2286    1.4140 C.3     1  UNL1       -0.0403
      7 C           5.1722   -0.2351    1.7039 C.3     1  UNL1       -0.0248
      8 C           4.6700   -0.4945    0.3241 C.ar    1  UNL1       -0.0187
      9 C           5.7356   -0.7943   -0.4936 C.ar    1  UNL1        0.0238
     10 N           5.2433   -1.0201   -1.7228 N.ar    1  UNL1       -0.3574
     11 C           3.8966   -0.8682   -1.6905 C.ar    1  UNL1        0.0472
     12 C           2.9051   -0.9764   -2.6456 C.ar    1  UNL1       -0.0343
     13 C           1.5758   -0.7674   -2.3618 C.ar    1  UNL1       -0.0179
     14 C           1.1725   -0.4310   -1.0689 C.ar    1  UNL1        0.1217
     15 O          -0.1733   -0.2285   -0.8253 O.3     1  UNL1       -0.4874
     16 C          -0.7056    0.1106    0.4379 C.3     1  UNL1        0.1146
     17 C          -2.1789    0.2570    0.3114 C.ar    1  UNL1       -0.0099
     18 C          -3.0097   -0.8188    0.4690 C.ar    1  UNL1       -0.0551
     19 C          -4.3960   -0.6555    0.3512 C.ar    1  UNL1       -0.0574
     20 C          -4.9841    0.5584    0.0788 C.ar    1  UNL1       -0.0326
     21 C          -6.4237    0.6796   -0.0089 C.3     1  UNL1       -0.0153
     22 C          -7.1606    0.6654    1.2982 C.3     1  UNL1       -0.0462
     23 C          -7.8206   -0.7098    1.3566 C.3     1  UNL1       -0.0525
     24 C          -8.2602   -0.8937   -0.0732 C.3     1  UNL1       -0.0525
     25 C          -7.0037   -0.4528   -0.8163 C.3     1  UNL1       -0.0462
     26 C          -4.1254    1.6508   -0.0804 C.ar    1  UNL1        0.0586
     27 C          -4.7296    2.9917   -0.3986 C.3     1  UNL1        0.4177
     28 F          -5.5937    3.4136    0.5602 F       1  UNL1       -0.1659
     29 F          -3.6628    3.9067   -0.3850 F       1  UNL1       -0.1659
     30 F          -5.2172    3.0247   -1.6794 F       1  UNL1       -0.1659
     31 C          -2.7663    1.4710    0.0389 C.ar    1  UNL1       -0.0434
     32 C           2.1668   -0.3252   -0.1223 C.ar    1  UNL1       -0.0105
     33 C           3.5081   -0.5361   -0.4096 C.ar    1  UNL1        0.0066
     34 H          11.2562   -0.7376    0.7664 H       1  UNL1        0.2951
     35 H           8.3163   -1.0015   -1.3091 H       1  UNL1        0.0384
     36 H           7.8157    0.7070   -1.0123 H       1  UNL1        0.0384
     37 H           7.2530   -1.7246    0.7545 H       1  UNL1        0.0369
     38 H           7.2262    0.1726    2.3251 H       1  UNL1        0.0275
     39 H           6.5580    1.2645    0.9794 H       1  UNL1        0.0275
     40 H           4.5864    0.5380    2.2267 H       1  UNL1        0.0314
     41 H           5.2540   -1.1789    2.2554 H       1  UNL1        0.0314
     42 H           5.7894   -1.2732   -2.5742 H       1  UNL1        0.1656
     43 H           3.1916   -1.2370   -3.6621 H       1  UNL1        0.0639
     44 H           0.7857   -0.8532   -3.1179 H       1  UNL1        0.0655
     45 H          -0.2290    1.0738    0.7373 H       1  UNL1        0.0748
     46 H          -0.4885   -0.7059    1.1420 H       1  UNL1        0.0748
     47 H          -2.5631   -1.7796    0.6842 H       1  UNL1        0.0621
     48 H          -4.9413   -1.5859    0.5032 H       1  UNL1        0.0621
     49 H          -6.6484    1.6615   -0.5250 H       1  UNL1        0.0349
     50 H          -8.0145    1.3716    1.3528 H       1  UNL1        0.0271
     51 H          -6.4868    0.7026    2.1791 H       1  UNL1        0.0271
     52 H          -8.7253   -0.6658    1.9966 H       1  UNL1        0.0265
     53 H          -7.1080   -1.4926    1.6855 H       1  UNL1        0.0265
     54 H          -8.4272   -1.9807   -0.2192 H       1  UNL1        0.0265
     55 H          -9.1196   -0.2662   -0.3386 H       1  UNL1        0.0265
     56 H          -7.3171   -0.1082   -1.8317 H       1  UNL1        0.0271
     57 H          -6.3690   -1.3561   -0.8728 H       1  UNL1        0.0271
     58 H          -2.1256    2.3457   -0.0900 H       1  UNL1        0.0627
     59 H           1.8991   -0.0689    0.8797 H       1  UNL1        0.0661
@<TRIPOS>BOND
     1     1     2    2
     2     2     3    1
     3     2     4    1
     4     4     5    1
     5     5     6    1
     6     6     7    1
     7     7     8    1
     8     8     9   ar
     9     9    10   ar
    10    10    11   ar
    11    11    12   ar
    12    12    13   ar
    13    13    14   ar
    14    14    15    1
    15    15    16    1
    16    16    17    1
    17    17    18   ar
    18    18    19   ar
    19    19    20   ar
    20    20    21    1
    21    21    22    1
    22    22    23    1
    23    23    24    1
    24    24    25    1
    25    20    26   ar
    26    26    27    1
    27    27    28    1
    28    27    29    1
    29    27    30    1
    30    26    31   ar
    31    14    32   ar
    32    32    33   ar
    33     9     5    1
    34    33    11   ar
    35    33     8   ar
    36    31    17   ar
    37    25    21    1
    38     3    34    1
    39     4    35    1
    40     4    36    1
    41     5    37    1
    42     6    38    1
    43     6    39    1
    44     7    40    1
    45     7    41    1
    46    10    42    1
    47    12    43    1
    48    13    44    1
    49    16    45    1
    50    16    46    1
    51    18    47    1
    52    19    48    1
    53    21    49    1
    54    22    50    1
    55    22    51    1
    56    23    52    1
    57    23    53    1
    58    24    54    1
    59    24    55    1
    60    25    56    1
    61    25    57    1
    62    31    58    1
    63    32    59    1
