
     RDKit          3D

 59 63  0  0  0  0  0  0  0  0999 V2000
    9.2374    0.7285    1.3282 O   0  0  0  0  0  0  0  0  0  0  0  0
    9.3121   -0.0240    0.3324 C   0  0  0  0  0  0  0  0  0  0  0  0
   10.5135   -0.6441    0.0541 O   0  0  0  0  0  0  0  0  0  0  0  0
    8.1323   -0.2449   -0.5279 C   0  0  0  0  0  0  0  0  0  0  0  0
    6.9917   -0.7398    0.3361 C   0  0  1  0  0  0  0  0  0  0  0  0
    6.6103    0.2286    1.4140 C   0  0  0  0  0  0  0  0  0  0  0  0
    5.1722   -0.2351    1.7039 C   0  0  0  0  0  0  0  0  0  0  0  0
    4.6700   -0.4945    0.3241 C   0  0  0  0  0  0  0  0  0  0  0  0
    5.7356   -0.7943   -0.4936 C   0  0  0  0  0  0  0  0  0  0  0  0
    5.2433   -1.0201   -1.7228 N   0  0  0  0  0  0  0  0  0  0  0  0
    3.8966   -0.8682   -1.6905 C   0  0  0  0  0  0  0  0  0  0  0  0
    2.9051   -0.9764   -2.6456 C   0  0  0  0  0  0  0  0  0  0  0  0
    1.5758   -0.7674   -2.3618 C   0  0  0  0  0  0  0  0  0  0  0  0
    1.1725   -0.4310   -1.0689 C   0  0  0  0  0  0  0  0  0  0  0  0
   -0.1733   -0.2285   -0.8253 O   0  0  0  0  0  0  0  0  0  0  0  0
   -0.7056    0.1106    0.4379 C   0  0  0  0  0  0  0  0  0  0  0  0
   -2.1789    0.2570    0.3114 C   0  0  0  0  0  0  0  0  0  0  0  0
   -3.0097   -0.8188    0.4690 C   0  0  0  0  0  0  0  0  0  0  0  0
   -4.3960   -0.6555    0.3512 C   0  0  0  0  0  0  0  0  0  0  0  0
   -4.9841    0.5584    0.0788 C   0  0  0  0  0  0  0  0  0  0  0  0
   -6.4237    0.6796   -0.0089 C   0  0  0  0  0  0  0  0  0  0  0  0
   -7.1606    0.6654    1.2982 C   0  0  0  0  0  0  0  0  0  0  0  0
   -7.8206   -0.7098    1.3566 C   0  0  0  0  0  0  0  0  0  0  0  0
   -8.2602   -0.8937   -0.0732 C   0  0  0  0  0  0  0  0  0  0  0  0
   -7.0037   -0.4528   -0.8163 C   0  0  0  0  0  0  0  0  0  0  0  0
   -4.1254    1.6508   -0.0804 C   0  0  0  0  0  0  0  0  0  0  0  0
   -4.7296    2.9917   -0.3986 C   0  0  0  0  0  0  0  0  0  0  0  0
   -5.5937    3.4136    0.5602 F   0  0  0  0  0  0  0  0  0  0  0  0
   -3.6628    3.9067   -0.3850 F   0  0  0  0  0  0  0  0  0  0  0  0
   -5.2172    3.0247   -1.6794 F   0  0  0  0  0  0  0  0  0  0  0  0
   -2.7663    1.4710    0.0389 C   0  0  0  0  0  0  0  0  0  0  0  0
    2.1668   -0.3252   -0.1223 C   0  0  0  0  0  0  0  0  0  0  0  0
    3.5081   -0.5361   -0.4096 C   0  0  0  0  0  0  0  0  0  0  0  0
   11.2562   -0.7376    0.7664 H   0  0  0  0  0  0  0  0  0  0  0  0
    8.3163   -1.0015   -1.3091 H   0  0  0  0  0  0  0  0  0  0  0  0
    7.8157    0.7070   -1.0123 H   0  0  0  0  0  0  0  0  0  0  0  0
    7.2530   -1.7246    0.7545 H   0  0  0  0  0  0  0  0  0  0  0  0
    7.2262    0.1726    2.3251 H   0  0  0  0  0  0  0  0  0  0  0  0
    6.5580    1.2645    0.9794 H   0  0  0  0  0  0  0  0  0  0  0  0
    4.5864    0.5380    2.2267 H   0  0  0  0  0  0  0  0  0  0  0  0
    5.2540   -1.1789    2.2554 H   0  0  0  0  0  0  0  0  0  0  0  0
    5.7894   -1.2732   -2.5742 H   0  0  0  0  0  0  0  0  0  0  0  0
    3.1916   -1.2370   -3.6621 H   0  0  0  0  0  0  0  0  0  0  0  0
    0.7857   -0.8532   -3.1179 H   0  0  0  0  0  0  0  0  0  0  0  0
   -0.2290    1.0738    0.7373 H   0  0  0  0  0  0  0  0  0  0  0  0
   -0.4885   -0.7059    1.1420 H   0  0  0  0  0  0  0  0  0  0  0  0
   -2.5631   -1.7796    0.6842 H   0  0  0  0  0  0  0  0  0  0  0  0
   -4.9413   -1.5859    0.5032 H   0  0  0  0  0  0  0  0  0  0  0  0
   -6.6484    1.6615   -0.5250 H   0  0  0  0  0  0  0  0  0  0  0  0
   -8.0145    1.3716    1.3528 H   0  0  0  0  0  0  0  0  0  0  0  0
   -6.4868    0.7026    2.1791 H   0  0  0  0  0  0  0  0  0  0  0  0
   -8.7253   -0.6658    1.9966 H   0  0  0  0  0  0  0  0  0  0  0  0
   -7.1080   -1.4926    1.6855 H   0  0  0  0  0  0  0  0  0  0  0  0
   -8.4272   -1.9807   -0.2192 H   0  0  0  0  0  0  0  0  0  0  0  0
   -9.1196   -0.2662   -0.3386 H   0  0  0  0  0  0  0  0  0  0  0  0
   -7.3171   -0.1082   -1.8317 H   0  0  0  0  0  0  0  0  0  0  0  0
   -6.3690   -1.3561   -0.8728 H   0  0  0  0  0  0  0  0  0  0  0  0
   -2.1256    2.3457   -0.0900 H   0  0  0  0  0  0  0  0  0  0  0  0
    1.8991   -0.0689    0.8797 H   0  0  0  0  0  0  0  0  0  0  0  0
  1  2  2  0
  2  3  1  0
  2  4  1  0
  4  5  1  0
  5  6  1  0
  6  7  1  0
  7  8  1  0
  8  9  2  0
  9 10  1  0
 10 11  1  0
 11 12  2  0
 12 13  1  0
 13 14  2  0
 14 15  1  0
 15 16  1  0
 16 17  1  0
 17 18  2  0
 18 19  1  0
 19 20  2  0
 20 21  1  0
 21 22  1  0
 22 23  1  0
 23 24  1  0
 24 25  1  0
 20 26  1  0
 26 27  1  0
 27 28  1  0
 27 29  1  0
 27 30  1  0
 26 31  2  0
 14 32  1  0
 32 33  2  0
  9  5  1  0
 33 11  1  0
 33  8  1  0
 31 17  1  0
 25 21  1  0
  3 34  1  0
  4 35  1  0
  4 36  1  0
  5 37  1  1
  6 38  1  0
  6 39  1  0
  7 40  1  0
  7 41  1  0
 10 42  1  0
 12 43  1  0
 13 44  1  0
 16 45  1  0
 16 46  1  0
 18 47  1  0
 19 48  1  0
 21 49  1  0
 22 50  1  0
 22 51  1  0
 23 52  1  0
 23 53  1  0
 24 54  1  0
 24 55  1  0
 25 56  1  0
 25 57  1  0
 31 58  1  0
 32 59  1  0
M  END
$$$$
