
     RDKit          3D

 49 51  0  0  0  0  0  0  0  0999 V2000
   -2.5510   -4.7224    3.9885 C   0  0  0  0  0  0  0  0  0  0  0  0
   -1.7533   -4.2223    2.9675 O   0  0  0  0  0  0  0  0  0  0  0  0
   -2.1379   -3.0604    2.2388 C   0  0  0  0  0  0  0  0  0  0  0  0
   -3.3107   -2.4209    2.5427 C   0  0  0  0  0  0  0  0  0  0  0  0
   -3.2913   -1.0528    1.3381 S   0  0  0  0  0  0  0  0  0  0  0  0
   -1.8085   -1.4489    0.5948 C   0  0  0  0  0  0  0  0  0  0  0  0
   -1.1202   -0.7466   -0.5208 C   0  0  0  0  0  0  0  0  0  0  0  0
    0.0377   -1.2228   -1.1137 C   0  0  0  0  0  0  0  0  0  0  0  0
    0.4131   -0.3780   -2.1313 C   0  0  0  0  0  0  0  0  0  0  0  0
    1.5720   -0.4668   -3.0451 C   0  0  0  0  0  0  0  0  0  0  0  0
    2.6851    0.2137   -2.7420 O   0  0  0  0  0  0  0  0  0  0  0  0
    3.3881    0.0172   -1.6165 C   0  0  0  0  0  0  0  0  0  0  0  0
    2.6494    0.3414   -0.3656 C   0  0  0  0  0  0  0  0  0  0  0  0
    3.8974   -1.4154   -1.4615 C   0  0  0  0  0  0  0  0  0  0  0  0
    4.6457    0.8556   -1.6951 C   0  0  0  0  0  0  0  0  0  0  0  0
    5.4687    0.8302   -0.7455 O   0  0  0  0  0  0  0  0  0  0  0  0
    4.9005    1.6451   -2.7915 O   0  0  0  0  0  0  0  0  0  0  0  0
   -0.5244    0.5863   -2.1276 N   0  0  0  0  0  0  0  0  0  0  0  0
   -1.4311    0.3592   -1.1650 N   0  0  0  0  0  0  0  0  0  0  0  0
   -2.5224    1.2703   -0.8877 C   0  0  0  0  0  0  0  0  0  0  0  0
   -2.0977    2.4252   -0.0691 C   0  0  0  0  0  0  0  0  0  0  0  0
   -2.3970    2.4941    1.2607 C   0  0  0  0  0  0  0  0  0  0  0  0
   -1.9612    3.6217    1.9875 C   0  0  0  0  0  0  0  0  0  0  0  0
   -1.2518    4.6369    1.3905 C   0  0  0  0  0  0  0  0  0  0  0  0
   -0.9468    4.5741    0.0479 C   0  0  0  0  0  0  0  0  0  0  0  0
   -1.3776    3.4649   -0.6595 C   0  0  0  0  0  0  0  0  0  0  0  0
   -1.0343    3.3544   -2.3666 Cl  0  0  0  0  0  0  0  0  0  0  0  0
   -1.3813   -2.5642    1.2520 C   0  0  0  0  0  0  0  0  0  0  0  0
   -3.0434   -3.9200    4.6045 H   0  0  0  0  0  0  0  0  0  0  0  0
   -3.3316   -5.3759    3.5350 H   0  0  0  0  0  0  0  0  0  0  0  0
   -1.9416   -5.3533    4.6569 H   0  0  0  0  0  0  0  0  0  0  0  0
   -4.1144   -2.6026    3.2904 H   0  0  0  0  0  0  0  0  0  0  0  0
    0.5625   -2.1110   -0.8273 H   0  0  0  0  0  0  0  0  0  0  0  0
    1.7908   -1.5769   -3.2286 H   0  0  0  0  0  0  0  0  0  0  0  0
    1.2444   -0.1497   -4.0943 H   0  0  0  0  0  0  0  0  0  0  0  0
    2.4158   -0.5514    0.2714 H   0  0  0  0  0  0  0  0  0  0  0  0
    1.7770    0.9670   -0.5816 H   0  0  0  0  0  0  0  0  0  0  0  0
    3.3592    0.9446    0.2884 H   0  0  0  0  0  0  0  0  0  0  0  0
    3.1555   -2.0648   -0.9530 H   0  0  0  0  0  0  0  0  0  0  0  0
    4.1973   -1.8392   -2.4629 H   0  0  0  0  0  0  0  0  0  0  0  0
    4.7774   -1.3671   -0.7885 H   0  0  0  0  0  0  0  0  0  0  0  0
    5.5855    2.3790   -2.8030 H   0  0  0  0  0  0  0  0  0  0  0  0
   -2.9475    1.6370   -1.8672 H   0  0  0  0  0  0  0  0  0  0  0  0
   -3.3880    0.7533   -0.4061 H   0  0  0  0  0  0  0  0  0  0  0  0
   -2.9605    1.7405    1.8039 H   0  0  0  0  0  0  0  0  0  0  0  0
   -2.1981    3.6766    3.0442 H   0  0  0  0  0  0  0  0  0  0  0  0
   -0.9184    5.5000    1.9490 H   0  0  0  0  0  0  0  0  0  0  0  0
   -0.3839    5.3631   -0.4623 H   0  0  0  0  0  0  0  0  0  0  0  0
   -0.3968   -3.0181    0.9261 H   0  0  0  0  0  0  0  0  0  0  0  0
  1  2  1  0
  2  3  1  0
  3  4  2  0
  4  5  1  0
  5  6  1  0
  6  7  1  0
  7  8  2  0
  8  9  1  0
  9 10  1  0
 10 11  1  0
 11 12  1  0
 12 13  1  0
 12 14  1  0
 12 15  1  0
 15 16  2  0
 15 17  1  0
  9 18  2  0
 18 19  1  0
 19 20  1  0
 20 21  1  0
 21 22  2  0
 22 23  1  0
 23 24  2  0
 24 25  1  0
 25 26  2  0
 26 27  1  0
  6 28  2  0
 28  3  1  0
 19  7  1  0
 26 21  1  0
  1 29  1  0
  1 30  1  0
  1 31  1  0
  4 32  1  0
  8 33  1  0
 10 34  1  0
 10 35  1  0
 13 36  1  0
 13 37  1  0
 13 38  1  0
 14 39  1  0
 14 40  1  0
 14 41  1  0
 17 42  1  0
 20 43  1  0
 20 44  1  0
 22 45  1  0
 23 46  1  0
 24 47  1  0
 25 48  1  0
 28 49  1  0
M  END
$$$$
