@<TRIPOS>MOLECULE
*****
 49 51 0 0 0
SMALL
GASTEIGER

@<TRIPOS>ATOM
      1 C          -2.5510   -4.7224    3.9885 C.3     1  UNL1        0.0788
      2 O          -1.7533   -4.2223    2.9675 O.3     1  UNL1       -0.4946
      3 C          -2.1379   -3.0604    2.2388 C.ar    1  UNL1        0.1277
      4 C          -3.3107   -2.4209    2.5427 C.ar    1  UNL1        0.0180
      5 S          -3.2913   -1.0528    1.3381 S.2     1  UNL1       -0.0914
      6 C          -1.8085   -1.4489    0.5948 C.ar    1  UNL1        0.0408
      7 C          -1.1202   -0.7466   -0.5208 C.ar    1  UNL1        0.0763
      8 C           0.0377   -1.2228   -1.1137 C.ar    1  UNL1       -0.0103
      9 C           0.4131   -0.3780   -2.1313 C.ar    1  UNL1        0.0892
     10 C           1.5720   -0.4668   -3.0451 C.3     1  UNL1        0.0928
     11 O           2.6851    0.2137   -2.7420 O.3     1  UNL1       -0.3566
     12 C           3.3881    0.0172   -1.6165 C.3     1  UNL1        0.1602
     13 C           2.6494    0.3414   -0.3656 C.3     1  UNL1       -0.0256
     14 C           3.8974   -1.4154   -1.4615 C.3     1  UNL1       -0.0256
     15 C           4.6457    0.8556   -1.6951 C.2     1  UNL1        0.3365
     16 O           5.4687    0.8302   -0.7455 O.2     1  UNL1       -0.2478
     17 O           4.9005    1.6451   -2.7915 O.3     1  UNL1       -0.4786
     18 N          -0.5244    0.5863   -2.1276 N.ar    1  UNL1       -0.1730
     19 N          -1.4311    0.3592   -1.1650 N.ar    1  UNL1       -0.2585
     20 C          -2.5224    1.2703   -0.8877 C.3     1  UNL1        0.0686
     21 C          -2.0977    2.4252   -0.0691 C.ar    1  UNL1       -0.0078
     22 C          -2.3970    2.4941    1.2607 C.ar    1  UNL1       -0.0554
     23 C          -1.9612    3.6217    1.9875 C.ar    1  UNL1       -0.0614
     24 C          -1.2518    4.6369    1.3905 C.ar    1  UNL1       -0.0604
     25 C          -0.9468    4.5741    0.0479 C.ar    1  UNL1       -0.0431
     26 C          -1.3776    3.4649   -0.6595 C.ar    1  UNL1        0.0459
     27 CL         -1.0343    3.3544   -2.3666 Cl      1  UNL1       -0.0832
     28 C          -1.3813   -2.5642    1.2520 C.ar    1  UNL1       -0.0037
     29 H          -3.0434   -3.9200    4.6045 H       1  UNL1        0.0660
     30 H          -3.3316   -5.3759    3.5350 H       1  UNL1        0.0660
     31 H          -1.9416   -5.3533    4.6569 H       1  UNL1        0.0660
     32 H          -4.1144   -2.6026    3.2904 H       1  UNL1        0.0730
     33 H           0.5625   -2.1110   -0.8273 H       1  UNL1        0.0658
     34 H           1.7908   -1.5769   -3.2286 H       1  UNL1        0.0626
     35 H           1.2444   -0.1497   -4.0943 H       1  UNL1        0.0626
     36 H           2.4158   -0.5514    0.2714 H       1  UNL1        0.0263
     37 H           1.7770    0.9670   -0.5816 H       1  UNL1        0.0263
     38 H           3.3592    0.9446    0.2884 H       1  UNL1        0.0263
     39 H           3.1555   -2.0648   -0.9530 H       1  UNL1        0.0263
     40 H           4.1973   -1.8392   -2.4629 H       1  UNL1        0.0263
     41 H           4.7774   -1.3671   -0.7885 H       1  UNL1        0.0263
     42 H           5.5855    2.3790   -2.8030 H       1  UNL1        0.2951
     43 H          -2.9475    1.6370   -1.8672 H       1  UNL1        0.0559
     44 H          -3.3880    0.7533   -0.4061 H       1  UNL1        0.0559
     45 H          -2.9605    1.7405    1.8039 H       1  UNL1        0.0621
     46 H          -2.1981    3.6766    3.0442 H       1  UNL1        0.0618
     47 H          -0.9184    5.5000    1.9490 H       1  UNL1        0.0618
     48 H          -0.3839    5.3631   -0.4623 H       1  UNL1        0.0632
     49 H          -0.3968   -3.0181    0.9261 H       1  UNL1        0.0666
@<TRIPOS>BOND
     1     1     2    1
     2     2     3    1
     3     3     4   ar
     4     4     5   ar
     5     5     6   ar
     6     6     7    1
     7     7     8   ar
     8     8     9   ar
     9     9    10    1
    10    10    11    1
    11    11    12    1
    12    12    13    1
    13    12    14    1
    14    12    15    1
    15    15    16    2
    16    15    17    1
    17     9    18   ar
    18    18    19   ar
    19    19    20    1
    20    20    21    1
    21    21    22   ar
    22    22    23   ar
    23    23    24   ar
    24    24    25   ar
    25    25    26   ar
    26    26    27    1
    27     6    28   ar
    28    28     3   ar
    29    19     7   ar
    30    26    21   ar
    31     1    29    1
    32     1    30    1
    33     1    31    1
    34     4    32    1
    35     8    33    1
    36    10    34    1
    37    10    35    1
    38    13    36    1
    39    13    37    1
    40    13    38    1
    41    14    39    1
    42    14    40    1
    43    14    41    1
    44    17    42    1
    45    20    43    1
    46    20    44    1
    47    22    45    1
    48    23    46    1
    49    24    47    1
    50    25    48    1
    51    28    49    1
