
     RDKit          3D

 50 53  0  0  0  0  0  0  0  0999 V2000
   -5.6580   -0.0832   -0.9067 C   0  0  1  0  0  0  0  0  0  0  0  0
   -7.0221    0.3455   -0.6350 N   0  0  0  0  0  0  0  0  0  0  0  0
   -4.7003    0.7926   -0.1739 C   0  0  0  0  0  0  0  0  0  0  0  0
   -4.3020    0.3009    1.1875 C   0  0  0  0  0  0  0  0  0  0  0  0
   -3.8237   -1.1201    1.1229 C   0  0  1  0  0  0  0  0  0  0  0  0
   -5.0050   -1.9367    0.6602 C   0  0  0  0  0  0  0  0  0  0  0  0
   -5.4841   -1.5456   -0.7021 C   0  0  0  0  0  0  0  0  0  0  0  0
   -2.6834   -1.3190    0.2585 N   0  0  0  0  0  0  0  0  0  0  0  0
   -1.4651   -0.6460    0.5454 C   0  0  0  0  0  0  0  0  0  0  0  0
   -1.3770    0.1627    1.6142 N   0  0  0  0  0  0  0  0  0  0  0  0
   -0.2695    0.8369    1.9596 C   0  0  0  0  0  0  0  0  0  0  0  0
    0.0655    1.6864    2.9411 N   0  0  0  0  0  0  0  0  0  0  0  0
    1.3440    2.0713    2.7881 C   0  0  0  0  0  0  0  0  0  0  0  0
    1.7598    1.4252    1.6861 N   0  0  0  0  0  0  0  0  0  0  0  0
    0.8131    0.6724    1.1619 N   0  0  0  0  0  0  0  0  0  0  0  0
    0.8175   -0.1141    0.0754 C   0  0  0  0  0  0  0  0  0  0  0  0
    1.9216   -0.3341   -0.7800 N   0  0  0  0  0  0  0  0  0  0  0  0
    3.2843   -0.0042   -0.7789 C   0  0  0  0  0  0  0  0  0  0  0  0
    4.0139    0.4437   -1.8676 C   0  0  0  0  0  0  0  0  0  0  0  0
    5.3545    0.7387   -1.8329 C   0  0  0  0  0  0  0  0  0  0  0  0
    6.0519    0.5900   -0.6497 C   0  0  0  0  0  0  0  0  0  0  0  0
    5.3534    0.1463    0.4478 C   0  0  0  0  0  0  0  0  0  0  0  0
    4.0053   -0.1433    0.3839 C   0  0  0  0  0  0  0  0  0  0  0  0
    7.7594    0.9710   -0.6252 S   0  0  0  0  0  0  0  0  0  0  0  0
    8.6339   -0.4676   -0.9816 N   0  0  0  0  0  0  0  0  0  0  0  0
    7.9933    2.0303   -1.6700 O   0  0  0  0  0  0  0  0  0  0  0  0
    8.1626    1.4877    0.7270 O   0  0  0  0  0  0  0  0  0  0  0  0
   -0.3435   -0.7882   -0.2427 C   0  0  0  0  0  0  0  0  0  0  0  0
   -5.5210    0.1115   -2.0009 H   0  0  0  0  0  0  0  0  0  0  0  0
   -6.9550    1.3814   -0.4491 H   0  0  0  0  0  0  0  0  0  0  0  0
   -7.3704   -0.1753    0.1917 H   0  0  0  0  0  0  0  0  0  0  0  0
   -5.2054    1.7769   -0.0001 H   0  0  0  0  0  0  0  0  0  0  0  0
   -3.8136    1.0477   -0.8122 H   0  0  0  0  0  0  0  0  0  0  0  0
   -5.2180    0.2982    1.8137 H   0  0  0  0  0  0  0  0  0  0  0  0
   -3.5923    1.0087    1.6076 H   0  0  0  0  0  0  0  0  0  0  0  0
   -3.5865   -1.4459    2.1582 H   0  0  0  0  0  0  0  0  0  0  0  0
   -4.6711   -2.9930    0.6153 H   0  0  0  0  0  0  0  0  0  0  0  0
   -5.7928   -1.8525    1.4414 H   0  0  0  0  0  0  0  0  0  0  0  0
   -4.7806   -1.9999   -1.4445 H   0  0  0  0  0  0  0  0  0  0  0  0
   -6.4650   -2.0414   -0.8682 H   0  0  0  0  0  0  0  0  0  0  0  0
   -2.7277   -1.9466   -0.5755 H   0  0  0  0  0  0  0  0  0  0  0  0
    2.0102    2.7413    3.3494 H   0  0  0  0  0  0  0  0  0  0  0  0
    1.7819   -0.8803   -1.6765 H   0  0  0  0  0  0  0  0  0  0  0  0
    3.4598    0.5592   -2.7999 H   0  0  0  0  0  0  0  0  0  0  0  0
    5.8392    1.0826   -2.7358 H   0  0  0  0  0  0  0  0  0  0  0  0
    5.9908    0.0609    1.3333 H   0  0  0  0  0  0  0  0  0  0  0  0
    3.6593   -0.4832    1.3313 H   0  0  0  0  0  0  0  0  0  0  0  0
    8.6064   -0.7042   -1.9974 H   0  0  0  0  0  0  0  0  0  0  0  0
    9.6255   -0.2937   -0.6408 H   0  0  0  0  0  0  0  0  0  0  0  0
   -0.4741   -1.4518   -1.0891 H   0  0  0  0  0  0  0  0  0  0  0  0
  1  2  1  0
  1  3  1  0
  3  4  1  0
  4  5  1  0
  5  6  1  0
  6  7  1  0
  5  8  1  0
  8  9  1  0
  9 10  2  0
 10 11  1  0
 11 12  2  0
 12 13  1  0
 13 14  2  0
 14 15  1  0
 15 16  1  0
 16 17  1  0
 17 18  1  0
 18 19  2  0
 19 20  1  0
 20 21  2  0
 21 22  1  0
 22 23  2  0
 21 24  1  0
 24 25  1  0
 24 26  2  0
 24 27  2  0
 16 28  2  0
  7  1  1  0
 28  9  1  0
 15 11  1  0
 23 18  1  0
  1 29  1  6
  2 30  1  0
  2 31  1  0
  3 32  1  0
  3 33  1  0
  4 34  1  0
  4 35  1  0
  5 36  1  1
  6 37  1  0
  6 38  1  0
  7 39  1  0
  7 40  1  0
  8 41  1  0
 13 42  1  0
 17 43  1  0
 19 44  1  0
 20 45  1  0
 22 46  1  0
 23 47  1  0
 25 48  1  0
 25 49  1  0
 28 50  1  0
M  END
$$$$
