@<TRIPOS>MOLECULE
*****
 54 55 0 0 0
SMALL
GASTEIGER

@<TRIPOS>ATOM
      1 C           3.8328   -0.5338    1.3132 C.3     1  UNL1        0.1513
      2 C           5.2445   -0.6298    1.9350 C.3     1  UNL1        0.0907
      3 O           6.0545   -0.9948    0.8344 O.3     1  UNL1       -0.3364
      4 C           6.0768    0.1151   -0.0301 C.3     1  UNL1        0.2673
      5 C           7.5207    0.5683   -0.0685 C.3     1  UNL1        0.0007
      6 O           5.2347    1.1234    0.4332 O.3     1  UNL1       -0.3364
      7 C           3.9264    0.6468    0.3700 C.3     1  UNL1        0.0907
      8 C           5.6235   -0.2429   -1.4028 C.2     1  UNL1        0.3649
      9 O           5.6429    0.8544   -2.2670 O.3     1  UNL1       -0.4769
     10 O           5.2328   -1.3129   -1.9366 O.2     1  UNL1       -0.2449
     11 O           3.6449   -1.7643    0.6853 O.2     1  UNL1       -0.4420
     12 C           2.4546   -1.9703    0.0139 C.2     1  UNL1        0.3839
     13 O           2.4222   -3.1494   -0.7586 O.2     1  UNL1       -0.4658
     14 N           1.3976   -1.3493   -0.0657 N.2     1  UNL1       -0.2147
     15 C           0.7634   -0.2000    0.3855 C.3     1  UNL1        0.0661
     16 C          -0.7404   -0.2449    0.0442 C.3     1  UNL1        0.0661
     17 N          -1.3859   -1.3389    0.6314 N.2     1  UNL1       -0.2147
     18 C          -2.4527   -1.9428    0.5364 C.2     1  UNL1        0.3839
     19 O          -2.3978   -2.9817    1.4866 O.2     1  UNL1       -0.4658
     20 O          -3.4450   -1.6030   -0.3474 O.2     1  UNL1       -0.4420
     21 C          -3.7998   -0.2789   -0.6572 C.3     1  UNL1        0.1513
     22 C          -5.0848   -0.2512   -1.4991 C.3     1  UNL1        0.0907
     23 O          -5.3149    1.1172   -1.7236 O.3     1  UNL1       -0.3364
     24 C          -5.6407    1.7564   -0.5358 C.3     1  UNL1        0.2673
     25 C          -5.9101    3.2120   -0.8403 C.3     1  UNL1        0.0007
     26 O          -4.5989    1.7137    0.3882 O.3     1  UNL1       -0.3364
     27 C          -4.1801    0.4115    0.6350 C.3     1  UNL1        0.0907
     28 C          -6.8724    1.1223    0.0055 C.2     1  UNL1        0.3649
     29 O          -7.9611    0.2698    0.1069 O.3     1  UNL1       -0.4769
     30 O          -7.1006    1.7574    1.0776 O.2     1  UNL1       -0.2449
     31 H           3.1007   -0.3011    2.1192 H       1  UNL1        0.0781
     32 H           5.5235    0.3454    2.3545 H       1  UNL1        0.0599
     33 H           5.2712   -1.4592    2.6654 H       1  UNL1        0.0599
     34 H           7.7017    1.3637   -0.8119 H       1  UNL1        0.0287
     35 H           7.8051    0.9445    0.9365 H       1  UNL1        0.0287
     36 H           8.1299   -0.3488   -0.2762 H       1  UNL1        0.0287
     37 H           3.1988    1.4413    0.6655 H       1  UNL1        0.0599
     38 H           3.7628    0.3291   -0.6962 H       1  UNL1        0.0599
     39 H           5.1862    0.8220   -3.1759 H       1  UNL1        0.2952
     40 H           1.5875   -3.6446   -0.9593 H       1  UNL1        0.2969
     41 H           0.8928    0.0134    1.4488 H       1  UNL1        0.0529
     42 H           1.1232    0.6759   -0.2350 H       1  UNL1        0.0529
     43 H          -0.7420   -0.3520   -1.0744 H       1  UNL1        0.0529
     44 H          -1.1921    0.7289    0.2846 H       1  UNL1        0.0529
     45 H          -1.6905   -3.7287    1.4305 H       1  UNL1        0.2969
     46 H          -3.0076    0.2862   -1.1499 H       1  UNL1        0.0781
     47 H          -4.9776   -0.7782   -2.4548 H       1  UNL1        0.0599
     48 H          -5.8801   -0.6369   -0.8367 H       1  UNL1        0.0599
     49 H          -6.5742    3.3673   -1.7086 H       1  UNL1        0.0287
     50 H          -6.2259    3.7888    0.0419 H       1  UNL1        0.0287
     51 H          -4.9267    3.6590   -1.1462 H       1  UNL1        0.0287
     52 H          -5.0153   -0.1648    1.1285 H       1  UNL1        0.0599
     53 H          -3.3321    0.4158    1.3151 H       1  UNL1        0.0599
     54 H          -7.9061   -0.6466    0.5346 H       1  UNL1        0.2952
@<TRIPOS>BOND
     1     1     2    1
     2     2     3    1
     3     3     4    1
     4     4     5    1
     5     4     6    1
     6     6     7    1
     7     4     8    1
     8     8     9    1
     9     8    10    2
    10     1    11    1
    11    11    12    1
    12    12    13    1
    13    12    14    2
    14    14    15    1
    15    15    16    1
    16    16    17    1
    17    17    18    2
    18    18    19    1
    19    18    20    1
    20    20    21    1
    21    21    22    1
    22    22    23    1
    23    23    24    1
    24    24    25    1
    25    24    26    1
    26    26    27    1
    27    24    28    1
    28    28    29    1
    29    28    30    2
    30     7     1    1
    31    27    21    1
    32     1    31    1
    33     2    32    1
    34     2    33    1
    35     5    34    1
    36     5    35    1
    37     5    36    1
    38     7    37    1
    39     7    38    1
    40     9    39    1
    41    13    40    1
    42    15    41    1
    43    15    42    1
    44    16    43    1
    45    16    44    1
    46    19    45    1
    47    21    46    1
    48    22    47    1
    49    22    48    1
    50    25    49    1
    51    25    50    1
    52    25    51    1
    53    27    52    1
    54    27    53    1
    55    29    54    1
