
     RDKit          3D

 54 55  0  0  0  0  0  0  0  0999 V2000
    3.8328   -0.5338    1.3132 C   0  0  1  0  0  0  0  0  0  0  0  0
    5.2445   -0.6298    1.9350 C   0  0  0  0  0  0  0  0  0  0  0  0
    6.0545   -0.9948    0.8344 O   0  0  0  0  0  0  0  0  0  0  0  0
    6.0768    0.1151   -0.0301 C   0  0  2  0  0  0  0  0  0  0  0  0
    7.5207    0.5683   -0.0685 C   0  0  0  0  0  0  0  0  0  0  0  0
    5.2347    1.1234    0.4332 O   0  0  0  0  0  0  0  0  0  0  0  0
    3.9264    0.6468    0.3700 C   0  0  0  0  0  0  0  0  0  0  0  0
    5.6235   -0.2429   -1.4028 C   0  0  0  0  0  0  0  0  0  0  0  0
    5.6429    0.8544   -2.2670 O   0  0  0  0  0  0  0  0  0  0  0  0
    5.2328   -1.3129   -1.9366 O   0  0  0  0  0  0  0  0  0  0  0  0
    3.6449   -1.7643    0.6853 O   0  0  0  0  0  0  0  0  0  0  0  0
    2.4546   -1.9703    0.0139 C   0  0  0  0  0  0  0  0  0  0  0  0
    2.4222   -3.1494   -0.7586 O   0  0  0  0  0  0  0  0  0  0  0  0
    1.3976   -1.3493   -0.0657 N   0  0  0  0  0  0  0  0  0  0  0  0
    0.7634   -0.2000    0.3855 C   0  0  0  0  0  0  0  0  0  0  0  0
   -0.7404   -0.2449    0.0442 C   0  0  0  0  0  0  0  0  0  0  0  0
   -1.3859   -1.3389    0.6314 N   0  0  0  0  0  0  0  0  0  0  0  0
   -2.4527   -1.9428    0.5364 C   0  0  0  0  0  0  0  0  0  0  0  0
   -2.3978   -2.9817    1.4866 O   0  0  0  0  0  0  0  0  0  0  0  0
   -3.4450   -1.6030   -0.3474 O   0  0  0  0  0  0  0  0  0  0  0  0
   -3.7998   -0.2789   -0.6572 C   0  0  1  0  0  0  0  0  0  0  0  0
   -5.0848   -0.2512   -1.4991 C   0  0  0  0  0  0  0  0  0  0  0  0
   -5.3149    1.1172   -1.7236 O   0  0  0  0  0  0  0  0  0  0  0  0
   -5.6407    1.7564   -0.5358 C   0  0  2  0  0  0  0  0  0  0  0  0
   -5.9101    3.2120   -0.8403 C   0  0  0  0  0  0  0  0  0  0  0  0
   -4.5989    1.7137    0.3882 O   0  0  0  0  0  0  0  0  0  0  0  0
   -4.1801    0.4115    0.6350 C   0  0  0  0  0  0  0  0  0  0  0  0
   -6.8724    1.1223    0.0055 C   0  0  0  0  0  0  0  0  0  0  0  0
   -7.9611    0.2698    0.1069 O   0  0  0  0  0  0  0  0  0  0  0  0
   -7.1006    1.7574    1.0776 O   0  0  0  0  0  0  0  0  0  0  0  0
    3.1007   -0.3011    2.1192 H   0  0  0  0  0  0  0  0  0  0  0  0
    5.5235    0.3454    2.3545 H   0  0  0  0  0  0  0  0  0  0  0  0
    5.2712   -1.4592    2.6654 H   0  0  0  0  0  0  0  0  0  0  0  0
    7.7017    1.3637   -0.8119 H   0  0  0  0  0  0  0  0  0  0  0  0
    7.8051    0.9445    0.9365 H   0  0  0  0  0  0  0  0  0  0  0  0
    8.1299   -0.3488   -0.2762 H   0  0  0  0  0  0  0  0  0  0  0  0
    3.1988    1.4413    0.6655 H   0  0  0  0  0  0  0  0  0  0  0  0
    3.7628    0.3291   -0.6962 H   0  0  0  0  0  0  0  0  0  0  0  0
    5.1862    0.8220   -3.1759 H   0  0  0  0  0  0  0  0  0  0  0  0
    1.5875   -3.6446   -0.9593 H   0  0  0  0  0  0  0  0  0  0  0  0
    0.8928    0.0134    1.4488 H   0  0  0  0  0  0  0  0  0  0  0  0
    1.1232    0.6759   -0.2350 H   0  0  0  0  0  0  0  0  0  0  0  0
   -0.7420   -0.3520   -1.0744 H   0  0  0  0  0  0  0  0  0  0  0  0
   -1.1921    0.7289    0.2846 H   0  0  0  0  0  0  0  0  0  0  0  0
   -1.6905   -3.7287    1.4305 H   0  0  0  0  0  0  0  0  0  0  0  0
   -3.0076    0.2862   -1.1499 H   0  0  0  0  0  0  0  0  0  0  0  0
   -4.9776   -0.7782   -2.4548 H   0  0  0  0  0  0  0  0  0  0  0  0
   -5.8801   -0.6369   -0.8367 H   0  0  0  0  0  0  0  0  0  0  0  0
   -6.5742    3.3673   -1.7086 H   0  0  0  0  0  0  0  0  0  0  0  0
   -6.2259    3.7888    0.0419 H   0  0  0  0  0  0  0  0  0  0  0  0
   -4.9267    3.6590   -1.1462 H   0  0  0  0  0  0  0  0  0  0  0  0
   -5.0153   -0.1648    1.1285 H   0  0  0  0  0  0  0  0  0  0  0  0
   -3.3321    0.4158    1.3151 H   0  0  0  0  0  0  0  0  0  0  0  0
   -7.9061   -0.6466    0.5346 H   0  0  0  0  0  0  0  0  0  0  0  0
  1  2  1  0
  2  3  1  0
  3  4  1  0
  4  5  1  6
  4  6  1  0
  6  7  1  0
  4  8  1  0
  8  9  1  0
  8 10  2  0
  1 11  1  0
 11 12  1  0
 12 13  1  0
 12 14  2  3
 14 15  1  0
 15 16  1  0
 16 17  1  0
 17 18  2  3
 18 19  1  0
 18 20  1  0
 20 21  1  0
 21 22  1  0
 22 23  1  0
 23 24  1  0
 24 25  1  6
 24 26  1  0
 26 27  1  0
 24 28  1  0
 28 29  1  0
 28 30  2  0
  7  1  1  0
 27 21  1  0
  1 31  1  1
  2 32  1  0
  2 33  1  0
  5 34  1  0
  5 35  1  0
  5 36  1  0
  7 37  1  0
  7 38  1  0
  9 39  1  0
 13 40  1  0
 15 41  1  0
 15 42  1  0
 16 43  1  0
 16 44  1  0
 19 45  1  0
 21 46  1  6
 22 47  1  0
 22 48  1  0
 25 49  1  0
 25 50  1  0
 25 51  1  0
 27 52  1  0
 27 53  1  0
 29 54  1  0
M  END
$$$$
