
     RDKit          3D

 65 68  0  0  0  0  0  0  0  0999 V2000
    3.0777   -1.7210    3.4734 C   0  0  0  0  0  0  0  0  0  0  0  0
    2.5462   -1.9025    2.0674 C   0  0  0  0  0  0  0  0  0  0  0  0
    1.6311   -0.7821    1.6865 C   0  0  0  0  0  0  0  0  0  0  0  0
    1.0929   -0.9400    0.2979 C   0  0  0  0  0  0  0  0  0  0  0  0
   -0.2135   -1.3781    0.2036 C   0  0  0  0  0  0  0  0  0  0  0  0
   -0.8362   -1.5708   -1.0114 C   0  0  0  0  0  0  0  0  0  0  0  0
   -2.2411   -2.0498   -1.0757 C   0  0  0  0  0  0  0  0  0  0  0  0
   -3.1806   -0.9502   -0.9375 N   0  0  0  0  0  0  0  0  0  0  0  0
   -3.7609   -0.1953   -1.8776 C   0  0  0  0  0  0  0  0  0  0  0  0
   -3.6295   -0.2928   -3.3627 C   0  0  0  0  0  0  0  0  0  0  0  0
   -4.7244   -1.2416   -3.8316 C   0  0  0  0  0  0  0  0  0  0  0  0
   -4.5563    0.7120   -1.2496 N   0  0  0  0  0  0  0  0  0  0  0  0
   -4.4764    0.5272    0.0705 C   0  0  0  0  0  0  0  0  0  0  0  0
   -5.0797    1.1675    1.1322 C   0  0  0  0  0  0  0  0  0  0  0  0
   -5.9946    2.2794    0.8526 C   0  0  0  0  0  0  0  0  0  0  0  0
   -4.8076    0.7467    2.4296 C   0  0  0  0  0  0  0  0  0  0  0  0
   -3.9348   -0.3074    2.6049 C   0  0  0  0  0  0  0  0  0  0  0  0
   -3.6638   -0.7349    4.0075 C   0  0  0  0  0  0  0  0  0  0  0  0
   -3.3715   -0.9000    1.5499 N   0  0  0  0  0  0  0  0  0  0  0  0
   -3.6122   -0.5168    0.2553 C   0  0  0  0  0  0  0  0  0  0  0  0
   -0.0975   -1.3080   -2.1440 C   0  0  0  0  0  0  0  0  0  0  0  0
    1.1950   -0.8735   -2.0435 C   0  0  0  0  0  0  0  0  0  0  0  0
    1.8537   -0.6683   -0.8143 C   0  0  0  0  0  0  0  0  0  0  0  0
    3.0879   -0.2527   -0.8532 O   0  0  0  0  0  0  0  0  0  0  0  0
    4.2128    0.1086   -0.2319 C   0  0  0  0  0  0  0  0  0  0  0  0
    5.3421   -0.7176   -0.7971 C   0  0  0  0  0  0  0  0  0  0  0  0
    5.1452   -1.4675   -1.8141 O   0  0  0  0  0  0  0  0  0  0  0  0
    6.6153   -0.7364   -0.2867 O   0  0  0  0  0  0  0  0  0  0  0  0
    4.5410    1.5622   -0.5187 C   0  0  0  0  0  0  0  0  0  0  0  0
    5.7452    1.9486   -0.9582 C   0  0  0  0  0  0  0  0  0  0  0  0
    6.0556    3.2913   -1.2159 C   0  0  0  0  0  0  0  0  0  0  0  0
    5.0679    4.2138   -0.9997 C   0  0  0  0  0  0  0  0  0  0  0  0
    3.8133    3.8573   -0.5478 C   0  0  0  0  0  0  0  0  0  0  0  0
    3.5628    2.5241   -0.3111 C   0  0  0  0  0  0  0  0  0  0  0  0
    2.3936   -1.1409    4.1245 H   0  0  0  0  0  0  0  0  0  0  0  0
    4.0528   -1.1623    3.4626 H   0  0  0  0  0  0  0  0  0  0  0  0
    3.3222   -2.7152    3.9194 H   0  0  0  0  0  0  0  0  0  0  0  0
    3.3756   -2.0987    1.3968 H   0  0  0  0  0  0  0  0  0  0  0  0
    1.9324   -2.8541    2.0983 H   0  0  0  0  0  0  0  0  0  0  0  0
    0.7581   -0.7734    2.4112 H   0  0  0  0  0  0  0  0  0  0  0  0
    2.1636    0.1798    1.7234 H   0  0  0  0  0  0  0  0  0  0  0  0
   -0.7830   -1.5943    1.0948 H   0  0  0  0  0  0  0  0  0  0  0  0
   -2.4619   -2.5223   -2.0694 H   0  0  0  0  0  0  0  0  0  0  0  0
   -2.4156   -2.8144   -0.2978 H   0  0  0  0  0  0  0  0  0  0  0  0
   -3.7922    0.7411   -3.7844 H   0  0  0  0  0  0  0  0  0  0  0  0
   -2.6475   -0.6728   -3.6113 H   0  0  0  0  0  0  0  0  0  0  0  0
   -5.4279   -1.5013   -3.0145 H   0  0  0  0  0  0  0  0  0  0  0  0
   -5.3264   -0.7220   -4.6190 H   0  0  0  0  0  0  0  0  0  0  0  0
   -4.2444   -2.1013   -4.3160 H   0  0  0  0  0  0  0  0  0  0  0  0
   -6.2650    2.8517    1.7786 H   0  0  0  0  0  0  0  0  0  0  0  0
   -6.9081    1.9023    0.3588 H   0  0  0  0  0  0  0  0  0  0  0  0
   -5.4309    3.0148    0.2087 H   0  0  0  0  0  0  0  0  0  0  0  0
   -5.2599    1.2224    3.2831 H   0  0  0  0  0  0  0  0  0  0  0  0
   -3.4602    0.2077    4.5734 H   0  0  0  0  0  0  0  0  0  0  0  0
   -4.5297   -1.2750    4.4391 H   0  0  0  0  0  0  0  0  0  0  0  0
   -2.8047   -1.4316    4.0285 H   0  0  0  0  0  0  0  0  0  0  0  0
   -0.5659   -1.4699   -3.1314 H   0  0  0  0  0  0  0  0  0  0  0  0
    1.7227   -0.6815   -2.9662 H   0  0  0  0  0  0  0  0  0  0  0  0
    4.2776    0.0606    0.8823 H   0  0  0  0  0  0  0  0  0  0  0  0
    7.4123   -0.9918   -0.8855 H   0  0  0  0  0  0  0  0  0  0  0  0
    6.5615    1.2696   -1.1558 H   0  0  0  0  0  0  0  0  0  0  0  0
    7.0215    3.5703   -1.5642 H   0  0  0  0  0  0  0  0  0  0  0  0
    5.2924    5.2564   -1.1949 H   0  0  0  0  0  0  0  0  0  0  0  0
    3.0346    4.5884   -0.3772 H   0  0  0  0  0  0  0  0  0  0  0  0
    2.5972    2.2259    0.0389 H   0  0  0  0  0  0  0  0  0  0  0  0
  1  2  1  0
  2  3  1  0
  3  4  1  0
  4  5  2  0
  5  6  1  0
  6  7  1  0
  7  8  1  0
  8  9  1  0
  9 10  1  0
 10 11  1  0
  9 12  2  0
 12 13  1  0
 13 14  2  0
 14 15  1  0
 14 16  1  0
 16 17  2  0
 17 18  1  0
 17 19  1  0
 19 20  2  0
  6 21  2  0
 21 22  1  0
 22 23  2  0
 23 24  1  0
 24 25  1  0
 25 26  1  0
 26 27  2  0
 26 28  1  0
 25 29  1  0
 29 30  2  0
 30 31  1  0
 31 32  2  0
 32 33  1  0
 33 34  2  0
 23  4  1  0
 34 29  1  0
 20  8  1  0
 20 13  1  0
  1 35  1  0
  1 36  1  0
  1 37  1  0
  2 38  1  0
  2 39  1  0
  3 40  1  0
  3 41  1  0
  5 42  1  0
  7 43  1  0
  7 44  1  0
 10 45  1  0
 10 46  1  0
 11 47  1  0
 11 48  1  0
 11 49  1  0
 15 50  1  0
 15 51  1  0
 15 52  1  0
 16 53  1  0
 18 54  1  0
 18 55  1  0
 18 56  1  0
 21 57  1  0
 22 58  1  0
 25 59  1  0
 28 60  1  0
 30 61  1  0
 31 62  1  0
 32 63  1  0
 33 64  1  0
 34 65  1  0
M  END
$$$$
