@<TRIPOS>MOLECULE
*****
 65 68 0 0 0
SMALL
GASTEIGER

@<TRIPOS>ATOM
      1 C           3.0777   -1.7210    3.4734 C.3     1  UNL1       -0.0650
      2 C           2.5462   -1.9025    2.0674 C.3     1  UNL1       -0.0518
      3 C           1.6311   -0.7821    1.6865 C.3     1  UNL1       -0.0245
      4 C           1.0929   -0.9400    0.2979 C.ar    1  UNL1       -0.0054
      5 C          -0.2135   -1.3781    0.2036 C.ar    1  UNL1       -0.0502
      6 C          -0.8362   -1.5708   -1.0114 C.ar    1  UNL1       -0.0272
      7 C          -2.2411   -2.0498   -1.0757 C.3     1  UNL1        0.0513
      8 N          -3.1806   -0.9502   -0.9375 N.ar    1  UNL1       -0.3081
      9 C          -3.7609   -0.1953   -1.8776 C.ar    1  UNL1        0.1119
     10 C          -3.6295   -0.2928   -3.3627 C.3     1  UNL1        0.0028
     11 C          -4.7244   -1.2416   -3.8316 C.3     1  UNL1       -0.0584
     12 N          -4.5563    0.7120   -1.2496 N.ar    1  UNL1       -0.2304
     13 C          -4.4764    0.5272    0.0705 C.ar    1  UNL1        0.1111
     14 C          -5.0797    1.1675    1.1322 C.ar    1  UNL1       -0.0198
     15 C          -5.9946    2.2794    0.8526 C.3     1  UNL1       -0.0375
     16 C          -4.8076    0.7467    2.4296 C.ar    1  UNL1       -0.0356
     17 C          -3.9348   -0.3074    2.6049 C.ar    1  UNL1        0.0409
     18 C          -3.6638   -0.7349    4.0075 C.3     1  UNL1       -0.0223
     19 N          -3.3715   -0.9000    1.5499 N.ar    1  UNL1       -0.2326
     20 C          -3.6122   -0.5168    0.2553 C.ar    1  UNL1        0.1612
     21 C          -0.0975   -1.3080   -2.1440 C.ar    1  UNL1       -0.0534
     22 C           1.1950   -0.8735   -2.0435 C.ar    1  UNL1       -0.0193
     23 C           1.8537   -0.6683   -0.8143 C.ar    1  UNL1        0.1254
     24 O           3.0879   -0.2527   -0.8532 O.3     1  UNL1       -0.4727
     25 C           4.2128    0.1086   -0.2319 C.3     1  UNL1        0.2208
     26 C           5.3421   -0.7176   -0.7971 C.2     1  UNL1        0.3506
     27 O           5.1452   -1.4675   -1.8141 O.2     1  UNL1       -0.2464
     28 O           6.6153   -0.7364   -0.2867 O.3     1  UNL1       -0.4778
     29 C           4.5410    1.5622   -0.5187 C.ar    1  UNL1        0.0035
     30 C           5.7452    1.9486   -0.9582 C.ar    1  UNL1       -0.0545
     31 C           6.0556    3.2913   -1.2159 C.ar    1  UNL1       -0.0614
     32 C           5.0679    4.2138   -0.9997 C.ar    1  UNL1       -0.0617
     33 C           3.8133    3.8573   -0.5478 C.ar    1  UNL1       -0.0614
     34 C           3.5628    2.5241   -0.3111 C.ar    1  UNL1       -0.0545
     35 H           2.3936   -1.1409    4.1245 H       1  UNL1        0.0230
     36 H           4.0528   -1.1623    3.4626 H       1  UNL1        0.0230
     37 H           3.3222   -2.7152    3.9194 H       1  UNL1        0.0230
     38 H           3.3756   -2.0987    1.3968 H       1  UNL1        0.0266
     39 H           1.9324   -2.8541    2.0983 H       1  UNL1        0.0266
     40 H           0.7581   -0.7734    2.4112 H       1  UNL1        0.0314
     41 H           2.1636    0.1798    1.7234 H       1  UNL1        0.0314
     42 H          -0.7830   -1.5943    1.0948 H       1  UNL1        0.0625
     43 H          -2.4619   -2.5223   -2.0694 H       1  UNL1        0.0542
     44 H          -2.4156   -2.8144   -0.2978 H       1  UNL1        0.0542
     45 H          -3.7922    0.7411   -3.7844 H       1  UNL1        0.0340
     46 H          -2.6475   -0.6728   -3.6113 H       1  UNL1        0.0340
     47 H          -5.4279   -1.5013   -3.0145 H       1  UNL1        0.0234
     48 H          -5.3264   -0.7220   -4.6190 H       1  UNL1        0.0234
     49 H          -4.2444   -2.1013   -4.3160 H       1  UNL1        0.0234
     50 H          -6.2650    2.8517    1.7786 H       1  UNL1        0.0278
     51 H          -6.9081    1.9023    0.3588 H       1  UNL1        0.0278
     52 H          -5.4309    3.0148    0.2087 H       1  UNL1        0.0278
     53 H          -5.2599    1.2224    3.2831 H       1  UNL1        0.0639
     54 H          -3.4602    0.2077    4.5734 H       1  UNL1        0.0292
     55 H          -4.5297   -1.2750    4.4391 H       1  UNL1        0.0292
     56 H          -2.8047   -1.4316    4.0285 H       1  UNL1        0.0292
     57 H          -0.5659   -1.4699   -3.1314 H       1  UNL1        0.0622
     58 H           1.7227   -0.6815   -2.9662 H       1  UNL1        0.0654
     59 H           4.2776    0.0606    0.8823 H       1  UNL1        0.0904
     60 H           7.4123   -0.9918   -0.8855 H       1  UNL1        0.2952
     61 H           6.5615    1.2696   -1.1558 H       1  UNL1        0.0622
     62 H           7.0215    3.5703   -1.5642 H       1  UNL1        0.0618
     63 H           5.2924    5.2564   -1.1949 H       1  UNL1        0.0618
     64 H           3.0346    4.5884   -0.3772 H       1  UNL1        0.0618
     65 H           2.5972    2.2259    0.0389 H       1  UNL1        0.0622
@<TRIPOS>BOND
     1     1     2    1
     2     2     3    1
     3     3     4    1
     4     4     5   ar
     5     5     6   ar
     6     6     7    1
     7     7     8    1
     8     8     9   ar
     9     9    10    1
    10    10    11    1
    11     9    12   ar
    12    12    13   ar
    13    13    14   ar
    14    14    15    1
    15    14    16   ar
    16    16    17   ar
    17    17    18    1
    18    17    19   ar
    19    19    20   ar
    20     6    21   ar
    21    21    22   ar
    22    22    23   ar
    23    23    24    1
    24    24    25    1
    25    25    26    1
    26    26    27    2
    27    26    28    1
    28    25    29    1
    29    29    30   ar
    30    30    31   ar
    31    31    32   ar
    32    32    33   ar
    33    33    34   ar
    34    23     4   ar
    35    34    29   ar
    36    20     8   ar
    37    20    13   ar
    38     1    35    1
    39     1    36    1
    40     1    37    1
    41     2    38    1
    42     2    39    1
    43     3    40    1
    44     3    41    1
    45     5    42    1
    46     7    43    1
    47     7    44    1
    48    10    45    1
    49    10    46    1
    50    11    47    1
    51    11    48    1
    52    11    49    1
    53    15    50    1
    54    15    51    1
    55    15    52    1
    56    16    53    1
    57    18    54    1
    58    18    55    1
    59    18    56    1
    60    21    57    1
    61    22    58    1
    62    25    59    1
    63    28    60    1
    64    30    61    1
    65    31    62    1
    66    32    63    1
    67    33    64    1
    68    34    65    1
