@<TRIPOS>MOLECULE
*****
 25 27 0 0 0
SMALL
GASTEIGER

@<TRIPOS>ATOM
      1 N           4.5415    1.6038   -0.1892 N.ar    1  UNL1       -0.2841
      2 C           5.2159    0.4536    0.0118 C.ar    1  UNL1        0.0230
      3 C           4.2141   -0.4980    0.2014 C.ar    1  UNL1       -0.0134
      4 C           2.9913    0.0876    0.1121 C.ar    1  UNL1        0.1301
      5 N           3.2362    1.3857   -0.1298 N.ar    1  UNL1       -0.1707
      6 C           1.6758   -0.5237    0.2438 C.ar    1  UNL1        0.1876
      7 C           0.4618    0.1222    0.1433 C.ar    1  UNL1        0.0146
      8 C          -0.5579   -0.7551    0.3194 C.ar    1  UNL1        0.1140
      9 N           0.0672   -1.9202    0.5240 N.ar    1  UNL1       -0.0776
     10 O           1.3657   -1.7576    0.4749 O.2     1  UNL1       -0.3525
     11 C          -1.9698   -0.4731    0.2887 C.ar    1  UNL1        0.0037
     12 C          -2.9434   -1.4212    0.4771 C.ar    1  UNL1       -0.0525
     13 C          -4.3019   -1.1341    0.4446 C.ar    1  UNL1       -0.0611
     14 C          -4.6941    0.1691    0.2113 C.ar    1  UNL1       -0.0617
     15 C          -3.7458    1.1734    0.0129 C.ar    1  UNL1       -0.0611
     16 C          -2.4155    0.8119    0.0595 C.ar    1  UNL1       -0.0525
     17 H           4.8432    2.5908   -0.3749 H       1  UNL1        0.1882
     18 H           6.2940    0.4079    0.0042 H       1  UNL1        0.0824
     19 H           4.4416   -1.5305    0.3875 H       1  UNL1        0.0655
     20 H           0.3859    1.2004   -0.0535 H       1  UNL1        0.0678
     21 H          -2.6683   -2.4501    0.6619 H       1  UNL1        0.0624
     22 H          -5.0868   -1.8669    0.5907 H       1  UNL1        0.0618
     23 H          -5.7155    0.5356    0.1592 H       1  UNL1        0.0618
     24 H          -3.9819    2.2115   -0.1741 H       1  UNL1        0.0618
     25 H          -1.6532    1.5770   -0.0923 H       1  UNL1        0.0624
@<TRIPOS>BOND
     1     1     2   ar
     2     2     3   ar
     3     3     4   ar
     4     4     5   ar
     5     4     6    1
     6     6     7   ar
     7     7     8   ar
     8     8     9   ar
     9     9    10   ar
    10     8    11    1
    11    11    12   ar
    12    12    13   ar
    13    13    14   ar
    14    14    15   ar
    15    15    16   ar
    16     5     1   ar
    17    10     6   ar
    18    16    11   ar
    19     1    17    1
    20     2    18    1
    21     3    19    1
    22     7    20    1
    23    12    21    1
    24    13    22    1
    25    14    23    1
    26    15    24    1
    27    16    25    1
