@<TRIPOS>MOLECULE
*****
 43 45 0 0 0
SMALL
GASTEIGER

@<TRIPOS>ATOM
      1 N           1.9797    1.0074   -2.1776 N.3     1  UNL1       -0.3265
      2 C           1.7143    0.9295   -0.7282 C.3     1  UNL1        0.0172
      3 C           0.2710    0.6067   -0.6102 C.3     1  UNL1        0.0396
      4 C          -0.3034    0.4646    0.7223 C.2     1  UNL1        0.2175
      5 O           0.3748    0.6124    1.7696 O.2     1  UNL1       -0.2755
      6 N          -1.6929    0.1458    0.8055 N.am    1  UNL1       -0.2924
      7 C          -2.5209   -0.0437   -0.3879 C.3     1  UNL1        0.0332
      8 C          -3.6700   -0.9423    0.0216 C.3     1  UNL1        0.0422
      9 N          -4.4941   -0.1109    0.9123 N.ar    1  UNL1       -0.3048
     10 C          -3.7634    0.3562    1.9679 C.ar    1  UNL1        0.1512
     11 C          -2.3132    0.0056    2.1103 C.3     1  UNL1        0.0746
     12 N          -4.6611    1.0916    2.6712 N.ar    1  UNL1       -0.1324
     13 N          -5.8188    1.0481    2.0630 N.ar    1  UNL1       -0.1250
     14 C          -5.7613    0.3068    0.9579 C.ar    1  UNL1        0.2376
     15 C          -6.7294   -0.0871   -0.0961 C.3     1  UNL1        0.4524
     16 F          -6.7024    0.8597   -1.1256 F       1  UNL1       -0.1632
     17 F          -6.4978   -1.3582   -0.5777 F       1  UNL1       -0.1632
     18 F          -7.9952   -0.0162    0.4511 F       1  UNL1       -0.1632
     19 C           2.6335   -0.0911   -0.1976 C.3     1  UNL1       -0.0092
     20 C           4.0525    0.0841   -0.3299 C.ar    1  UNL1       -0.0078
     21 C           4.7761   -1.0411    0.1003 C.ar    1  UNL1       -0.0176
     22 C           6.1642   -1.0613    0.0463 C.ar    1  UNL1        0.1588
     23 F           6.9027   -2.1130    0.4460 F       1  UNL1       -0.2025
     24 C           6.8381    0.0368   -0.4357 C.ar    1  UNL1        0.1611
     25 F           8.1923    0.0458   -0.5001 F       1  UNL1       -0.2024
     26 C           6.1742    1.1507   -0.8639 C.ar    1  UNL1        0.0119
     27 C           4.7968    1.1183   -0.7887 C.ar    1  UNL1        0.1295
     28 F           4.0940    2.1920   -1.1945 F       1  UNL1       -0.2051
     29 H           1.3607    1.7058   -2.6220 H       1  UNL1        0.1185
     30 H           1.7623    0.0266   -2.5119 H       1  UNL1        0.1185
     31 H           1.8931    1.8975   -0.2194 H       1  UNL1        0.0466
     32 H          -0.3550    1.3469   -1.1530 H       1  UNL1        0.0374
     33 H           0.0292   -0.3654   -1.1387 H       1  UNL1        0.0374
     34 H          -2.9923    0.9281   -0.6639 H       1  UNL1        0.0482
     35 H          -2.0035   -0.5502   -1.2006 H       1  UNL1        0.0482
     36 H          -3.2663   -1.7452    0.6601 H       1  UNL1        0.0508
     37 H          -4.2150   -1.3182   -0.8397 H       1  UNL1        0.0508
     38 H          -2.2009   -1.0477    2.4241 H       1  UNL1        0.0545
     39 H          -1.8936    0.7428    2.8174 H       1  UNL1        0.0545
     40 H           2.4220   -0.1985    0.9036 H       1  UNL1        0.0329
     41 H           2.3749   -1.0562   -0.7297 H       1  UNL1        0.0329
     42 H           4.3558   -1.9551    0.4938 H       1  UNL1        0.0651
     43 H           6.6882    2.0361   -1.2516 H       1  UNL1        0.0676
@<TRIPOS>BOND
     1     1     2    1
     2     2     3    1
     3     3     4    1
     4     4     5    2
     5     4     6   am
     6     6     7    1
     7     7     8    1
     8     8     9    1
     9     9    10   ar
    10    10    11    1
    11    10    12   ar
    12    12    13   ar
    13    13    14   ar
    14    14    15    1
    15    15    16    1
    16    15    17    1
    17    15    18    1
    18     2    19    1
    19    19    20    1
    20    20    21   ar
    21    21    22   ar
    22    22    23    1
    23    22    24   ar
    24    24    25    1
    25    24    26   ar
    26    26    27   ar
    27    27    28    1
    28    11     6    1
    29    27    20   ar
    30    14     9   ar
    31     1    29    1
    32     1    30    1
    33     2    31    1
    34     3    32    1
    35     3    33    1
    36     7    34    1
    37     7    35    1
    38     8    36    1
    39     8    37    1
    40    11    38    1
    41    11    39    1
    42    19    40    1
    43    19    41    1
    44    21    42    1
    45    26    43    1
