@<TRIPOS>MOLECULE
*****
 58 62 0 0 0
SMALL
GASTEIGER

@<TRIPOS>ATOM
      1 C           5.3029   -1.6994   -1.8470 C.3     1  UNL1        0.0381
      2 P           3.8648   -2.0209   -0.7937 P.3     1  UNL1        0.3298
      3 O           3.4624   -3.4843   -0.8278 O.2     1  UNL1       -0.2587
      4 O           4.2252   -1.5553    0.8172 O.3     1  UNL1       -0.3080
      5 C           2.9468   -1.4601    1.4288 C.3     1  UNL1        0.0575
      6 C           2.2154   -0.2038    1.0051 C.3     1  UNL1       -0.0208
      7 C           0.8864   -0.5432    0.2967 C.3     1  UNL1        0.0050
      8 C           0.0790   -1.3337    1.2356 C.3     1  UNL1       -0.0447
      9 C          -0.7631   -0.5355    2.1839 C.3     1  UNL1       -0.0501
     10 C          -1.3193    0.7331    1.7183 C.3     1  UNL1       -0.0227
     11 C          -0.9950    1.2024    0.3289 C.3     1  UNL1        0.1302
     12 S          -2.4136    0.7615   -0.7266 S.O2    1  UNL1        0.0072
     13 O          -2.0432    1.2417   -2.1239 O.2     1  UNL1       -0.1685
     14 O          -3.6463    1.4769   -0.3353 O.2     1  UNL1       -0.1685
     15 C          -2.7301   -0.9366   -0.7703 C.ar    1  UNL1        0.0893
     16 C          -3.5156   -1.5694    0.1506 C.ar    1  UNL1       -0.0355
     17 C          -3.7491   -2.9151    0.0753 C.ar    1  UNL1       -0.0416
     18 C          -3.1822   -3.6398   -0.9462 C.ar    1  UNL1        0.0411
     19 CL         -3.4547   -5.3638   -1.0801 Cl      1  UNL1       -0.0835
     20 C          -2.3812   -3.0413   -1.9001 C.ar    1  UNL1       -0.0416
     21 C          -2.1738   -1.6841   -1.7844 C.ar    1  UNL1       -0.0355
     22 C          -1.0125    2.6833    0.2854 C.ar    1  UNL1        0.0600
     23 C          -1.9711    3.3627    0.9945 C.ar    1  UNL1        0.1323
     24 F          -2.8510    2.7074    1.7503 F       1  UNL1       -0.2050
     25 C          -2.0971    4.7514    0.9858 C.ar    1  UNL1       -0.0232
     26 C          -1.2289    5.5043    0.2363 C.ar    1  UNL1       -0.0201
     27 C          -0.2566    4.8582   -0.4850 C.ar    1  UNL1        0.1653
     28 F           0.6064    5.5812   -1.2306 F       1  UNL1       -0.2016
     29 C          -0.1608    3.4577   -0.4503 C.ar    1  UNL1        0.1635
     30 O           0.8291    2.8298   -1.1821 O.3     1  UNL1       -0.4883
     31 C           1.3593    1.6670   -0.5174 C.3     1  UNL1        0.0955
     32 C           0.2423    0.6687   -0.2775 C.3     1  UNL1        0.0308
     33 C           1.3508   -1.4379   -0.8377 C.3     1  UNL1        0.0631
     34 O           2.6061   -1.0534   -1.3097 O.3     1  UNL1       -0.3075
     35 H           6.1931   -2.1443   -1.3748 H       1  UNL1        0.0352
     36 H           5.3747   -0.5840   -1.9454 H       1  UNL1        0.0352
     37 H           5.1377   -2.1553   -2.8293 H       1  UNL1        0.0352
     38 H           3.1115   -1.5219    2.5063 H       1  UNL1        0.0565
     39 H           2.4501   -2.4008    1.0677 H       1  UNL1        0.0565
     40 H           2.9051    0.2980    0.2937 H       1  UNL1        0.0294
     41 H           2.0344    0.4142    1.8844 H       1  UNL1        0.0294
     42 H          -0.5769   -2.0797    0.7432 H       1  UNL1        0.0271
     43 H           0.7168   -1.9706    1.9130 H       1  UNL1        0.0271
     44 H          -0.1817   -0.3313    3.1415 H       1  UNL1        0.0266
     45 H          -1.5811   -1.2113    2.5847 H       1  UNL1        0.0266
     46 H          -2.4475    0.5965    1.7741 H       1  UNL1        0.0290
     47 H          -1.0257    1.5508    2.4487 H       1  UNL1        0.0290
     48 H          -3.9774   -0.9959    0.9666 H       1  UNL1        0.0637
     49 H          -4.3853   -3.4307    0.8206 H       1  UNL1        0.0633
     50 H          -1.9172   -3.5653   -2.7155 H       1  UNL1        0.0633
     51 H          -1.5461   -1.1566   -2.5274 H       1  UNL1        0.0637
     52 H          -2.8561    5.2656    1.5488 H       1  UNL1        0.0647
     53 H          -1.2927    6.5958    0.2005 H       1  UNL1        0.0648
     54 H           1.8743    1.9910    0.3805 H       1  UNL1        0.0700
     55 H           2.0420    1.2299   -1.2893 H       1  UNL1        0.0700
     56 H          -0.0385    0.3963   -1.3501 H       1  UNL1        0.0365
     57 H           1.2847   -2.5116   -0.5967 H       1  UNL1        0.0570
     58 H           0.6702   -1.2885   -1.7126 H       1  UNL1        0.0570
@<TRIPOS>BOND
     1     1     2    1
     2     2     3    2
     3     2     4    1
     4     4     5    1
     5     5     6    1
     6     7     6    1
     7     7     8    1
     8     8     9    1
     9     9    10    1
    10    10    11    1
    11    11    12    1
    12    12    13    2
    13    12    14    2
    14    12    15    1
    15    15    16   ar
    16    16    17   ar
    17    17    18   ar
    18    18    19    1
    19    18    20   ar
    20    20    21   ar
    21    11    22    1
    22    22    23   ar
    23    23    24    1
    24    23    25   ar
    25    25    26   ar
    26    26    27   ar
    27    27    28    1
    28    27    29   ar
    29    29    30    1
    30    30    31    1
    31    31    32    1
    32     7    33    1
    33    33    34    1
    34    34     2    1
    35    32     7    1
    36    32    11    1
    37    21    15   ar
    38    29    22   ar
    39     1    35    1
    40     1    36    1
    41     1    37    1
    42     5    38    1
    43     5    39    1
    44     6    40    1
    45     6    41    1
    46     8    42    1
    47     8    43    1
    48     9    44    1
    49     9    45    1
    50    10    46    1
    51    10    47    1
    52    16    48    1
    53    17    49    1
    54    20    50    1
    55    21    51    1
    56    25    52    1
    57    26    53    1
    58    31    54    1
    59    31    55    1
    60    32    56    1
    61    33    57    1
    62    33    58    1
