
     RDKit          3D

 58 62  0  0  0  0  0  0  0  0999 V2000
    5.3029   -1.6994   -1.8470 C   0  0  0  0  0  0  0  0  0  0  0  0
    3.8648   -2.0209   -0.7937 P   0  0  0  0  0  5  0  0  0  0  0  0
    3.4624   -3.4843   -0.8278 O   0  0  0  0  0  0  0  0  0  0  0  0
    4.2252   -1.5553    0.8172 O   0  0  0  0  0  0  0  0  0  0  0  0
    2.9468   -1.4601    1.4288 C   0  0  0  0  0  0  0  0  0  0  0  0
    2.2154   -0.2038    1.0051 C   0  0  0  0  0  0  0  0  0  0  0  0
    0.8864   -0.5432    0.2967 C   0  0  1  0  0  0  0  0  0  0  0  0
    0.0790   -1.3337    1.2356 C   0  0  0  0  0  0  0  0  0  0  0  0
   -0.7631   -0.5355    2.1839 C   0  0  0  0  0  0  0  0  0  0  0  0
   -1.3193    0.7331    1.7183 C   0  0  0  0  0  0  0  0  0  0  0  0
   -0.9950    1.2024    0.3289 C   0  0  1  0  0  0  0  0  0  0  0  0
   -2.4136    0.7615   -0.7266 S   0  0  0  0  0  6  0  0  0  0  0  0
   -2.0432    1.2417   -2.1239 O   0  0  0  0  0  0  0  0  0  0  0  0
   -3.6463    1.4769   -0.3353 O   0  0  0  0  0  0  0  0  0  0  0  0
   -2.7301   -0.9366   -0.7703 C   0  0  0  0  0  0  0  0  0  0  0  0
   -3.5156   -1.5694    0.1506 C   0  0  0  0  0  0  0  0  0  0  0  0
   -3.7491   -2.9151    0.0753 C   0  0  0  0  0  0  0  0  0  0  0  0
   -3.1822   -3.6398   -0.9462 C   0  0  0  0  0  0  0  0  0  0  0  0
   -3.4547   -5.3638   -1.0801 Cl  0  0  0  0  0  0  0  0  0  0  0  0
   -2.3812   -3.0413   -1.9001 C   0  0  0  0  0  0  0  0  0  0  0  0
   -2.1738   -1.6841   -1.7844 C   0  0  0  0  0  0  0  0  0  0  0  0
   -1.0125    2.6833    0.2854 C   0  0  0  0  0  0  0  0  0  0  0  0
   -1.9711    3.3627    0.9945 C   0  0  0  0  0  0  0  0  0  0  0  0
   -2.8510    2.7074    1.7503 F   0  0  0  0  0  0  0  0  0  0  0  0
   -2.0971    4.7514    0.9858 C   0  0  0  0  0  0  0  0  0  0  0  0
   -1.2289    5.5043    0.2363 C   0  0  0  0  0  0  0  0  0  0  0  0
   -0.2566    4.8582   -0.4850 C   0  0  0  0  0  0  0  0  0  0  0  0
    0.6064    5.5812   -1.2306 F   0  0  0  0  0  0  0  0  0  0  0  0
   -0.1608    3.4577   -0.4503 C   0  0  0  0  0  0  0  0  0  0  0  0
    0.8291    2.8298   -1.1821 O   0  0  0  0  0  0  0  0  0  0  0  0
    1.3593    1.6670   -0.5174 C   0  0  0  0  0  0  0  0  0  0  0  0
    0.2423    0.6687   -0.2775 C   0  0  1  0  0  0  0  0  0  0  0  0
    1.3508   -1.4379   -0.8377 C   0  0  0  0  0  0  0  0  0  0  0  0
    2.6061   -1.0534   -1.3097 O   0  0  0  0  0  0  0  0  0  0  0  0
    6.1931   -2.1443   -1.3748 H   0  0  0  0  0  0  0  0  0  0  0  0
    5.3747   -0.5840   -1.9454 H   0  0  0  0  0  0  0  0  0  0  0  0
    5.1377   -2.1553   -2.8293 H   0  0  0  0  0  0  0  0  0  0  0  0
    3.1115   -1.5219    2.5063 H   0  0  0  0  0  0  0  0  0  0  0  0
    2.4501   -2.4008    1.0677 H   0  0  0  0  0  0  0  0  0  0  0  0
    2.9051    0.2980    0.2937 H   0  0  0  0  0  0  0  0  0  0  0  0
    2.0344    0.4142    1.8844 H   0  0  0  0  0  0  0  0  0  0  0  0
   -0.5769   -2.0797    0.7432 H   0  0  0  0  0  0  0  0  0  0  0  0
    0.7168   -1.9706    1.9130 H   0  0  0  0  0  0  0  0  0  0  0  0
   -0.1817   -0.3313    3.1415 H   0  0  0  0  0  0  0  0  0  0  0  0
   -1.5811   -1.2113    2.5847 H   0  0  0  0  0  0  0  0  0  0  0  0
   -2.4475    0.5965    1.7741 H   0  0  0  0  0  0  0  0  0  0  0  0
   -1.0257    1.5508    2.4487 H   0  0  0  0  0  0  0  0  0  0  0  0
   -3.9774   -0.9959    0.9666 H   0  0  0  0  0  0  0  0  0  0  0  0
   -4.3853   -3.4307    0.8206 H   0  0  0  0  0  0  0  0  0  0  0  0
   -1.9172   -3.5653   -2.7155 H   0  0  0  0  0  0  0  0  0  0  0  0
   -1.5461   -1.1566   -2.5274 H   0  0  0  0  0  0  0  0  0  0  0  0
   -2.8561    5.2656    1.5488 H   0  0  0  0  0  0  0  0  0  0  0  0
   -1.2927    6.5958    0.2005 H   0  0  0  0  0  0  0  0  0  0  0  0
    1.8743    1.9910    0.3805 H   0  0  0  0  0  0  0  0  0  0  0  0
    2.0420    1.2299   -1.2893 H   0  0  0  0  0  0  0  0  0  0  0  0
   -0.0385    0.3963   -1.3501 H   0  0  0  0  0  0  0  0  0  0  0  0
    1.2847   -2.5116   -0.5967 H   0  0  0  0  0  0  0  0  0  0  0  0
    0.6702   -1.2885   -1.7126 H   0  0  0  0  0  0  0  0  0  0  0  0
  1  2  1  0
  2  3  2  0
  2  4  1  0
  4  5  1  0
  5  6  1  0
  7  6  1  1
  7  8  1  0
  8  9  1  0
  9 10  1  0
 10 11  1  0
 11 12  1  6
 12 13  2  0
 12 14  2  0
 12 15  1  0
 15 16  2  0
 16 17  1  0
 17 18  2  0
 18 19  1  0
 18 20  1  0
 20 21  2  0
 11 22  1  0
 22 23  2  0
 23 24  1  0
 23 25  1  0
 25 26  2  0
 26 27  1  0
 27 28  1  0
 27 29  2  0
 29 30  1  0
 30 31  1  0
 31 32  1  0
  7 33  1  0
 33 34  1  0
 34  2  1  0
 32  7  1  0
 32 11  1  0
 21 15  1  0
 29 22  1  0
  1 35  1  0
  1 36  1  0
  1 37  1  0
  5 38  1  0
  5 39  1  0
  6 40  1  0
  6 41  1  0
  8 42  1  0
  8 43  1  0
  9 44  1  0
  9 45  1  0
 10 46  1  0
 10 47  1  0
 16 48  1  0
 17 49  1  0
 20 50  1  0
 21 51  1  0
 25 52  1  0
 26 53  1  0
 31 54  1  0
 31 55  1  0
 32 56  1  6
 33 57  1  0
 33 58  1  0
M  END
$$$$
