@<TRIPOS>MOLECULE
*****
 73 77 0 0 0
SMALL
GASTEIGER

@<TRIPOS>ATOM
      1 C          -4.5490    2.9806    0.4418 C.3     1  UNL1       -0.0634
      2 C          -4.9586    1.7590    1.2680 C.3     1  UNL1       -0.0317
      3 C          -4.8262    0.5300    0.3232 C.3     1  UNL1        0.0874
      4 C          -3.3753    0.5957   -0.0246 C.2     1  UNL1        0.2345
      5 O          -2.5475    0.8005    0.9149 O.2     1  UNL1       -0.2737
      6 N          -2.8839    0.4722   -1.3552 N.am    1  UNL1       -0.2825
      7 C          -1.4867    0.6779   -1.6320 C.ar    1  UNL1        0.0576
      8 C          -1.2099    1.9990   -2.1763 C.ar    1  UNL1       -0.0384
      9 C           0.0431    2.4384   -2.2848 C.ar    1  UNL1       -0.0593
     10 C           1.1283    1.6862   -1.9000 C.ar    1  UNL1       -0.0518
     11 C           0.8903    0.4234   -1.3761 C.ar    1  UNL1        0.0107
     12 C           1.7220   -0.4364   -0.6940 C.ar    1  UNL1        0.0258
     13 C           3.0945   -0.1614   -0.2641 C.ar    1  UNL1        0.0809
     14 N           4.1384   -0.9852   -0.3110 N.ar    1  UNL1       -0.2139
     15 C           5.3245   -0.5093    0.0509 C.ar    1  UNL1        0.2202
     16 N           6.4388   -1.4207    0.4212 N.pl3   1  UNL1       -0.2782
     17 C           7.6376   -0.8314    0.4683 C.ar    1  UNL1        0.1152
     18 C           8.0625    0.4609    0.5621 C.ar    1  UNL1        0.0503
     19 N           9.4590    0.5114    0.4674 N.ar    1  UNL1       -0.2692
     20 C          10.1231    1.7239    0.5072 C.3     1  UNL1        0.0304
     21 N           9.8341   -0.7780    0.3408 N.ar    1  UNL1       -0.1317
     22 C           8.9216   -1.6779    0.3436 C.ar    1  UNL1        0.2552
     23 O           8.4443   -2.9268    0.3113 O.3     1  UNL1       -0.4774
     24 C           8.0820   -4.0735    0.2806 C.3     1  UNL1        0.0805
     25 N           5.5274    0.7617    0.4299 N.ar    1  UNL1       -0.2224
     26 C           4.5236    1.6206    0.4786 C.ar    1  UNL1        0.0361
     27 C           3.2390    1.1435    0.1327 C.ar    1  UNL1       -0.0062
     28 C           2.1373    2.0719    0.5078 C.3     1  UNL1       -0.0362
     29 C           0.9439   -1.4706   -0.1911 C.ar    1  UNL1        0.0120
     30 N          -0.3581   -1.2293   -0.5496 N.ar    1  UNL1       -0.3586
     31 C          -0.4207   -0.0714   -1.2575 C.ar    1  UNL1        0.0686
     32 N          -5.2398   -0.6419    0.8938 N.3     1  UNL1       -0.2891
     33 C          -5.3737   -1.6430   -0.1400 C.3     1  UNL1        0.0124
     34 C          -6.7033   -2.3511   -0.1597 C.3     1  UNL1        0.0114
     35 N          -7.8347   -1.4601   -0.2627 N.3     1  UNL1       -0.3029
     36 C          -9.0599   -2.0974    0.1748 C.3     1  UNL1       -0.0127
     37 C          -7.5908   -0.2112    0.4644 C.3     1  UNL1        0.0114
     38 C          -6.5737   -0.5406    1.5139 C.3     1  UNL1        0.0124
     39 H          -4.2807    2.7433   -0.5710 H       1  UNL1        0.0230
     40 H          -5.3686    3.7341    0.3920 H       1  UNL1        0.0230
     41 H          -3.7067    3.5327    0.9588 H       1  UNL1        0.0230
     42 H          -4.1915    1.6187    2.0309 H       1  UNL1        0.0282
     43 H          -5.9776    1.9087    1.6031 H       1  UNL1        0.0282
     44 H          -5.3552    0.7865   -0.6344 H       1  UNL1        0.0558
     45 H          -3.5201    0.2074   -2.1252 H       1  UNL1        0.1549
     46 H          -2.0830    2.5842   -2.4295 H       1  UNL1        0.0637
     47 H           0.2626    3.4072   -2.6431 H       1  UNL1        0.0618
     48 H           2.1593    2.0259   -2.0859 H       1  UNL1        0.0624
     49 H           6.1216   -2.3559    0.6725 H       1  UNL1        0.1552
     50 H           7.4723    1.3643    0.8701 H       1  UNL1        0.0846
     51 H           9.5678    2.5184   -0.0973 H       1  UNL1        0.0473
     52 H          11.0621    1.6644   -0.0432 H       1  UNL1        0.0473
     53 H          10.2119    2.1960    1.4800 H       1  UNL1        0.0473
     54 H           8.5206   -4.7881   -0.4091 H       1  UNL1        0.0660
     55 H           6.9404   -4.1472   -0.2785 H       1  UNL1        0.0660
     56 H           7.7204   -4.5567    1.2584 H       1  UNL1        0.0660
     57 H           4.6451    2.6884    0.7022 H       1  UNL1        0.0834
     58 H           2.4381    2.2957    1.6362 H       1  UNL1        0.0279
     59 H           2.1707    3.0464    0.0273 H       1  UNL1        0.0279
     60 H           1.2181    1.5491    0.6617 H       1  UNL1        0.0279
     61 H           1.3309   -2.3569    0.3146 H       1  UNL1        0.0814
     62 H          -1.1629   -1.8222   -0.3878 H       1  UNL1        0.1654
     63 H          -5.2893   -1.1481   -1.1526 H       1  UNL1        0.0439
     64 H          -4.5752   -2.3944   -0.0592 H       1  UNL1        0.0439
     65 H          -6.7240   -2.9416   -1.1247 H       1  UNL1        0.0439
     66 H          -6.8175   -3.1072    0.6383 H       1  UNL1        0.0439
     67 H          -9.7198   -1.2927    0.5762 H       1  UNL1        0.0391
     68 H          -8.8975   -2.8121    1.0137 H       1  UNL1        0.0391
     69 H          -9.6282   -2.5751   -0.6577 H       1  UNL1        0.0391
     70 H          -8.5642    0.1393    0.8897 H       1  UNL1        0.0439
     71 H          -7.2866    0.5278   -0.2788 H       1  UNL1        0.0439
     72 H          -6.8157   -1.5356    1.9210 H       1  UNL1        0.0439
     73 H          -6.6010    0.1556    2.3795 H       1  UNL1        0.0439
@<TRIPOS>BOND
     1     1     2    1
     2     2     3    1
     3     3     4    1
     4     4     5    2
     5     4     6   am
     6     6     7    1
     7     7     8   ar
     8     8     9   ar
     9     9    10   ar
    10    10    11   ar
    11    11    12   ar
    12    12    13    1
    13    13    14   ar
    14    14    15   ar
    15    15    16    1
    16    16    17    1
    17    17    18   ar
    18    18    19   ar
    19    19    20    1
    20    19    21   ar
    21    21    22   ar
    22    22    23    1
    23    23    24    1
    24    15    25   ar
    25    25    26   ar
    26    26    27   ar
    27    27    28    1
    28    12    29   ar
    29    29    30   ar
    30    30    31   ar
    31     3    32    1
    32    32    33    1
    33    33    34    1
    34    34    35    1
    35    35    36    1
    36    35    37    1
    37    37    38    1
    38    31     7   ar
    39    38    32    1
    40    31    11   ar
    41    27    13   ar
    42    22    17   ar
    43     1    39    1
    44     1    40    1
    45     1    41    1
    46     2    42    1
    47     2    43    1
    48     3    44    1
    49     6    45    1
    50     8    46    1
    51     9    47    1
    52    10    48    1
    53    16    49    1
    54    18    50    1
    55    20    51    1
    56    20    52    1
    57    20    53    1
    58    24    54    1
    59    24    55    1
    60    24    56    1
    61    26    57    1
    62    28    58    1
    63    28    59    1
    64    28    60    1
    65    29    61    1
    66    30    62    1
    67    33    63    1
    68    33    64    1
    69    34    65    1
    70    34    66    1
    71    36    67    1
    72    36    68    1
    73    36    69    1
    74    37    70    1
    75    37    71    1
    76    38    72    1
    77    38    73    1
