
     RDKit          3D

 73 77  0  0  0  0  0  0  0  0999 V2000
   -4.5490    2.9806    0.4418 C   0  0  0  0  0  0  0  0  0  0  0  0
   -4.9586    1.7590    1.2680 C   0  0  0  0  0  0  0  0  0  0  0  0
   -4.8262    0.5300    0.3232 C   0  0  1  0  0  0  0  0  0  0  0  0
   -3.3753    0.5957   -0.0246 C   0  0  0  0  0  0  0  0  0  0  0  0
   -2.5475    0.8005    0.9149 O   0  0  0  0  0  0  0  0  0  0  0  0
   -2.8839    0.4722   -1.3552 N   0  0  0  0  0  0  0  0  0  0  0  0
   -1.4867    0.6779   -1.6320 C   0  0  0  0  0  0  0  0  0  0  0  0
   -1.2099    1.9990   -2.1763 C   0  0  0  0  0  0  0  0  0  0  0  0
    0.0431    2.4384   -2.2848 C   0  0  0  0  0  0  0  0  0  0  0  0
    1.1283    1.6862   -1.9000 C   0  0  0  0  0  0  0  0  0  0  0  0
    0.8903    0.4234   -1.3761 C   0  0  0  0  0  0  0  0  0  0  0  0
    1.7220   -0.4364   -0.6940 C   0  0  0  0  0  0  0  0  0  0  0  0
    3.0945   -0.1614   -0.2641 C   0  0  0  0  0  0  0  0  0  0  0  0
    4.1384   -0.9852   -0.3110 N   0  0  0  0  0  0  0  0  0  0  0  0
    5.3245   -0.5093    0.0509 C   0  0  0  0  0  0  0  0  0  0  0  0
    6.4388   -1.4207    0.4212 N   0  0  0  0  0  0  0  0  0  0  0  0
    7.6376   -0.8314    0.4683 C   0  0  0  0  0  0  0  0  0  0  0  0
    8.0625    0.4609    0.5621 C   0  0  0  0  0  0  0  0  0  0  0  0
    9.4590    0.5114    0.4674 N   0  0  0  0  0  0  0  0  0  0  0  0
   10.1231    1.7239    0.5072 C   0  0  0  0  0  0  0  0  0  0  0  0
    9.8341   -0.7780    0.3408 N   0  0  0  0  0  0  0  0  0  0  0  0
    8.9216   -1.6779    0.3436 C   0  0  0  0  0  0  0  0  0  0  0  0
    8.4443   -2.9268    0.3113 O   0  0  0  0  0  0  0  0  0  0  0  0
    8.0820   -4.0735    0.2806 C   0  0  0  0  0  0  0  0  0  0  0  0
    5.5274    0.7617    0.4299 N   0  0  0  0  0  0  0  0  0  0  0  0
    4.5236    1.6206    0.4786 C   0  0  0  0  0  0  0  0  0  0  0  0
    3.2390    1.1435    0.1327 C   0  0  0  0  0  0  0  0  0  0  0  0
    2.1373    2.0719    0.5078 C   0  0  0  0  0  0  0  0  0  0  0  0
    0.9439   -1.4706   -0.1911 C   0  0  0  0  0  0  0  0  0  0  0  0
   -0.3581   -1.2293   -0.5496 N   0  0  0  0  0  0  0  0  0  0  0  0
   -0.4207   -0.0714   -1.2575 C   0  0  0  0  0  0  0  0  0  0  0  0
   -5.2398   -0.6419    0.8938 N   0  0  0  0  0  0  0  0  0  0  0  0
   -5.3737   -1.6430   -0.1400 C   0  0  0  0  0  0  0  0  0  0  0  0
   -6.7033   -2.3511   -0.1597 C   0  0  0  0  0  0  0  0  0  0  0  0
   -7.8347   -1.4601   -0.2627 N   0  0  0  0  0  0  0  0  0  0  0  0
   -9.0599   -2.0974    0.1748 C   0  0  0  0  0  0  0  0  0  0  0  0
   -7.5908   -0.2112    0.4644 C   0  0  0  0  0  0  0  0  0  0  0  0
   -6.5737   -0.5406    1.5139 C   0  0  0  0  0  0  0  0  0  0  0  0
   -4.2807    2.7433   -0.5710 H   0  0  0  0  0  0  0  0  0  0  0  0
   -5.3686    3.7341    0.3920 H   0  0  0  0  0  0  0  0  0  0  0  0
   -3.7067    3.5327    0.9588 H   0  0  0  0  0  0  0  0  0  0  0  0
   -4.1915    1.6187    2.0309 H   0  0  0  0  0  0  0  0  0  0  0  0
   -5.9776    1.9087    1.6031 H   0  0  0  0  0  0  0  0  0  0  0  0
   -5.3552    0.7865   -0.6344 H   0  0  0  0  0  0  0  0  0  0  0  0
   -3.5201    0.2074   -2.1252 H   0  0  0  0  0  0  0  0  0  0  0  0
   -2.0830    2.5842   -2.4295 H   0  0  0  0  0  0  0  0  0  0  0  0
    0.2626    3.4072   -2.6431 H   0  0  0  0  0  0  0  0  0  0  0  0
    2.1593    2.0259   -2.0859 H   0  0  0  0  0  0  0  0  0  0  0  0
    6.1216   -2.3559    0.6725 H   0  0  0  0  0  0  0  0  0  0  0  0
    7.4723    1.3643    0.8701 H   0  0  0  0  0  0  0  0  0  0  0  0
    9.5678    2.5184   -0.0973 H   0  0  0  0  0  0  0  0  0  0  0  0
   11.0621    1.6644   -0.0432 H   0  0  0  0  0  0  0  0  0  0  0  0
   10.2119    2.1960    1.4800 H   0  0  0  0  0  0  0  0  0  0  0  0
    8.5206   -4.7881   -0.4091 H   0  0  0  0  0  0  0  0  0  0  0  0
    6.9404   -4.1472   -0.2785 H   0  0  0  0  0  0  0  0  0  0  0  0
    7.7204   -4.5567    1.2584 H   0  0  0  0  0  0  0  0  0  0  0  0
    4.6451    2.6884    0.7022 H   0  0  0  0  0  0  0  0  0  0  0  0
    2.4381    2.2957    1.6362 H   0  0  0  0  0  0  0  0  0  0  0  0
    2.1707    3.0464    0.0273 H   0  0  0  0  0  0  0  0  0  0  0  0
    1.2181    1.5491    0.6617 H   0  0  0  0  0  0  0  0  0  0  0  0
    1.3309   -2.3569    0.3146 H   0  0  0  0  0  0  0  0  0  0  0  0
   -1.1629   -1.8222   -0.3878 H   0  0  0  0  0  0  0  0  0  0  0  0
   -5.2893   -1.1481   -1.1526 H   0  0  0  0  0  0  0  0  0  0  0  0
   -4.5752   -2.3944   -0.0592 H   0  0  0  0  0  0  0  0  0  0  0  0
   -6.7240   -2.9416   -1.1247 H   0  0  0  0  0  0  0  0  0  0  0  0
   -6.8175   -3.1072    0.6383 H   0  0  0  0  0  0  0  0  0  0  0  0
   -9.7198   -1.2927    0.5762 H   0  0  0  0  0  0  0  0  0  0  0  0
   -8.8975   -2.8121    1.0137 H   0  0  0  0  0  0  0  0  0  0  0  0
   -9.6282   -2.5751   -0.6577 H   0  0  0  0  0  0  0  0  0  0  0  0
   -8.5642    0.1393    0.8897 H   0  0  0  0  0  0  0  0  0  0  0  0
   -7.2866    0.5278   -0.2788 H   0  0  0  0  0  0  0  0  0  0  0  0
   -6.8157   -1.5356    1.9210 H   0  0  0  0  0  0  0  0  0  0  0  0
   -6.6010    0.1556    2.3795 H   0  0  0  0  0  0  0  0  0  0  0  0
  1  2  1  0
  2  3  1  0
  3  4  1  0
  4  5  2  0
  4  6  1  0
  6  7  1  0
  7  8  2  0
  8  9  1  0
  9 10  2  0
 10 11  1  0
 11 12  1  0
 12 13  1  0
 13 14  2  0
 14 15  1  0
 15 16  1  0
 16 17  1  0
 17 18  2  0
 18 19  1  0
 19 20  1  0
 19 21  1  0
 21 22  2  0
 22 23  1  0
 23 24  1  0
 15 25  2  0
 25 26  1  0
 26 27  2  0
 27 28  1  0
 12 29  2  0
 29 30  1  0
 30 31  1  0
  3 32  1  0
 32 33  1  0
 33 34  1  0
 34 35  1  0
 35 36  1  0
 35 37  1  0
 37 38  1  0
 31  7  1  0
 38 32  1  0
 31 11  2  0
 27 13  1  0
 22 17  1  0
  1 39  1  0
  1 40  1  0
  1 41  1  0
  2 42  1  0
  2 43  1  0
  3 44  1  6
  6 45  1  0
  8 46  1  0
  9 47  1  0
 10 48  1  0
 16 49  1  0
 18 50  1  0
 20 51  1  0
 20 52  1  0
 20 53  1  0
 24 54  1  0
 24 55  1  0
 24 56  1  0
 26 57  1  0
 28 58  1  0
 28 59  1  0
 28 60  1  0
 29 61  1  0
 30 62  1  0
 33 63  1  0
 33 64  1  0
 34 65  1  0
 34 66  1  0
 36 67  1  0
 36 68  1  0
 36 69  1  0
 37 70  1  0
 37 71  1  0
 38 72  1  0
 38 73  1  0
M  END
$$$$
