
     RDKit          3D

 50 52  0  0  0  0  0  0  0  0999 V2000
   -1.4885   -3.3672    0.2266 C   0  0  0  0  0  0  0  0  0  0  0  0
   -1.8701   -2.0085    0.2326 O   0  0  0  0  0  0  0  0  0  0  0  0
   -1.0310   -1.0330   -0.2257 C   0  0  0  0  0  0  0  0  0  0  0  0
    0.2359   -1.3811   -0.7131 C   0  0  0  0  0  0  0  0  0  0  0  0
    1.0968   -0.4179   -1.1793 C   0  0  0  0  0  0  0  0  0  0  0  0
    2.4696   -0.6919   -1.6992 C   0  0  0  0  0  0  0  0  0  0  0  0
    3.5182   -0.4370   -0.7194 C   0  0  0  0  0  0  0  0  0  0  0  0
    4.2645    0.7263   -0.8111 C   0  0  0  0  0  0  0  0  0  0  0  0
    5.2288    1.0144    0.0661 N   0  0  0  0  0  0  0  0  0  0  0  0
    5.4895    0.1528    1.0729 C   0  0  0  0  0  0  0  0  0  0  0  0
    6.5237    0.4553    2.0208 N   0  0  0  0  0  0  0  0  0  0  0  0
    4.7886   -0.9870    1.1971 N   0  0  0  0  0  0  0  0  0  0  0  0
    3.7965   -1.2972    0.3059 C   0  0  0  0  0  0  0  0  0  0  0  0
    3.0559   -2.5006    0.4288 N   0  0  0  0  0  0  0  0  0  0  0  0
    0.6409    0.9021   -1.1389 C   0  0  0  0  0  0  0  0  0  0  0  0
   -0.5872    1.2416   -0.6667 C   0  0  0  0  0  0  0  0  0  0  0  0
   -1.4517    0.2785   -0.1985 C   0  0  0  0  0  0  0  0  0  0  0  0
   -2.7467    0.5970    0.3119 N   0  0  0  0  0  0  0  0  0  0  0  0
   -3.3989   -0.2422    1.2694 C   0  0  0  0  0  0  0  0  0  0  0  0
   -4.6303   -0.9375    0.7370 C   0  0  0  0  0  0  0  0  0  0  0  0
   -5.1867   -1.7326    1.7380 O   0  0  0  0  0  0  0  0  0  0  0  0
   -3.3786    1.8298   -0.1822 C   0  0  0  0  0  0  0  0  0  0  0  0
   -2.4903    2.6539   -1.0362 C   0  0  0  0  0  0  0  0  0  0  0  0
   -1.0530    2.6783   -0.6349 C   0  0  0  0  0  0  0  0  0  0  0  0
   -0.8188    3.1594    0.7735 C   0  0  0  0  0  0  0  0  0  0  0  0
   -1.3427   -3.7672   -0.7894 H   0  0  0  0  0  0  0  0  0  0  0  0
   -0.5437   -3.4271    0.8290 H   0  0  0  0  0  0  0  0  0  0  0  0
   -2.2222   -4.0177    0.7341 H   0  0  0  0  0  0  0  0  0  0  0  0
    0.5505   -2.4060   -0.7350 H   0  0  0  0  0  0  0  0  0  0  0  0
    2.6684   -0.1034   -2.6150 H   0  0  0  0  0  0  0  0  0  0  0  0
    2.4837   -1.7709   -1.9673 H   0  0  0  0  0  0  0  0  0  0  0  0
    4.0477    1.4073   -1.6182 H   0  0  0  0  0  0  0  0  0  0  0  0
    6.8903   -0.2973    2.6411 H   0  0  0  0  0  0  0  0  0  0  0  0
    6.9279    1.4010    2.1170 H   0  0  0  0  0  0  0  0  0  0  0  0
    3.2808   -3.3648   -0.1133 H   0  0  0  0  0  0  0  0  0  0  0  0
    2.2539   -2.4936    1.0999 H   0  0  0  0  0  0  0  0  0  0  0  0
    1.2856    1.6843   -1.4945 H   0  0  0  0  0  0  0  0  0  0  0  0
   -3.8582    0.5043    2.0071 H   0  0  0  0  0  0  0  0  0  0  0  0
   -2.7758   -0.8246    1.9401 H   0  0  0  0  0  0  0  0  0  0  0  0
   -5.4492   -0.1825    0.5224 H   0  0  0  0  0  0  0  0  0  0  0  0
   -4.4930   -1.4503   -0.2272 H   0  0  0  0  0  0  0  0  0  0  0  0
   -4.6534   -2.5659    1.8337 H   0  0  0  0  0  0  0  0  0  0  0  0
   -3.8140    2.4080    0.6579 H   0  0  0  0  0  0  0  0  0  0  0  0
   -4.2399    1.4773   -0.7970 H   0  0  0  0  0  0  0  0  0  0  0  0
   -2.5310    2.3771   -2.1087 H   0  0  0  0  0  0  0  0  0  0  0  0
   -2.8589    3.7178   -0.9794 H   0  0  0  0  0  0  0  0  0  0  0  0
   -0.4959    3.2699   -1.3789 H   0  0  0  0  0  0  0  0  0  0  0  0
   -0.8584    4.2579    0.8709 H   0  0  0  0  0  0  0  0  0  0  0  0
    0.2372    2.8691    1.0435 H   0  0  0  0  0  0  0  0  0  0  0  0
   -1.4668    2.6417    1.4765 H   0  0  0  0  0  0  0  0  0  0  0  0
  1  2  1  0
  2  3  1  0
  3  4  2  0
  4  5  1  0
  5  6  1  0
  6  7  1  0
  7  8  2  0
  8  9  1  0
  9 10  2  0
 10 11  1  0
 10 12  1  0
 12 13  2  0
 13 14  1  0
  5 15  2  0
 15 16  1  0
 16 17  2  0
 17 18  1  0
 18 19  1  0
 19 20  1  0
 20 21  1  0
 18 22  1  0
 22 23  1  0
 23 24  1  0
 24 25  1  0
 17  3  1  0
 13  7  1  0
 24 16  1  0
  1 26  1  0
  1 27  1  0
  1 28  1  0
  4 29  1  0
  6 30  1  0
  6 31  1  0
  8 32  1  0
 11 33  1  0
 11 34  1  0
 14 35  1  0
 14 36  1  0
 15 37  1  0
 19 38  1  0
 19 39  1  0
 20 40  1  0
 20 41  1  0
 21 42  1  0
 22 43  1  0
 22 44  1  0
 23 45  1  0
 23 46  1  0
 24 47  1  0
 25 48  1  0
 25 49  1  0
 25 50  1  0
M  END
$$$$
