@<TRIPOS>MOLECULE
*****
 50 52 0 0 0
SMALL
GASTEIGER

@<TRIPOS>ATOM
      1 C          -1.4885   -3.3672    0.2266 C.3     1  UNL1        0.0789
      2 O          -1.8701   -2.0085    0.2326 O.3     1  UNL1       -0.4932
      3 C          -1.0310   -1.0330   -0.2257 C.ar    1  UNL1        0.1416
      4 C           0.2359   -1.3811   -0.7131 C.ar    1  UNL1       -0.0146
      5 C           1.0968   -0.4179   -1.1793 C.ar    1  UNL1       -0.0391
      6 C           2.4696   -0.6919   -1.6992 C.3     1  UNL1        0.0024
      7 C           3.5182   -0.4370   -0.7194 C.ar    1  UNL1        0.0146
      8 C           4.2645    0.7263   -0.8111 C.ar    1  UNL1        0.0379
      9 N           5.2288    1.0144    0.0661 N.ar    1  UNL1       -0.2227
     10 C           5.4895    0.1528    1.0729 C.ar    1  UNL1        0.2142
     11 N           6.5237    0.4553    2.0208 N.pl3   1  UNL1       -0.3274
     12 N           4.7886   -0.9870    1.1971 N.ar    1  UNL1       -0.1999
     13 C           3.7965   -1.2972    0.3059 C.ar    1  UNL1        0.1247
     14 N           3.0559   -2.5006    0.4288 N.pl3   1  UNL1       -0.3428
     15 C           0.6409    0.9021   -1.1389 C.ar    1  UNL1       -0.0528
     16 C          -0.5872    1.2416   -0.6667 C.ar    1  UNL1       -0.0196
     17 C          -1.4517    0.2785   -0.1985 C.ar    1  UNL1        0.0755
     18 N          -2.7467    0.5970    0.3119 N.pl3   1  UNL1       -0.3247
     19 C          -3.3989   -0.2422    1.2694 C.3     1  UNL1        0.0355
     20 C          -4.6303   -0.9375    0.7370 C.3     1  UNL1        0.0599
     21 O          -5.1867   -1.7326    1.7380 O.3     1  UNL1       -0.3935
     22 C          -3.3786    1.8298   -0.1822 C.3     1  UNL1        0.0129
     23 C          -2.4903    2.6539   -1.0362 C.3     1  UNL1       -0.0306
     24 C          -1.0530    2.6783   -0.6349 C.3     1  UNL1       -0.0154
     25 C          -0.8188    3.1594    0.7735 C.3     1  UNL1       -0.0583
     26 H          -1.3427   -3.7672   -0.7894 H       1  UNL1        0.0660
     27 H          -0.5437   -3.4271    0.8290 H       1  UNL1        0.0660
     28 H          -2.2222   -4.0177    0.7341 H       1  UNL1        0.0660
     29 H           0.5505   -2.4060   -0.7350 H       1  UNL1        0.0657
     30 H           2.6684   -0.1034   -2.6150 H       1  UNL1        0.0363
     31 H           2.4837   -1.7709   -1.9673 H       1  UNL1        0.0363
     32 H           4.0477    1.4073   -1.6182 H       1  UNL1        0.0834
     33 H           6.8903   -0.2973    2.6411 H       1  UNL1        0.1452
     34 H           6.9279    1.4010    2.1170 H       1  UNL1        0.1452
     35 H           3.2808   -3.3648   -0.1133 H       1  UNL1        0.1437
     36 H           2.2539   -2.4936    1.0999 H       1  UNL1        0.1437
     37 H           1.2856    1.6843   -1.4945 H       1  UNL1        0.0624
     38 H          -3.8582    0.5043    2.0071 H       1  UNL1        0.0486
     39 H          -2.7758   -0.8246    1.9401 H       1  UNL1        0.0486
     40 H          -5.4492   -0.1825    0.5224 H       1  UNL1        0.0573
     41 H          -4.4930   -1.4503   -0.2272 H       1  UNL1        0.0573
     42 H          -4.6534   -2.5659    1.8337 H       1  UNL1        0.2095
     43 H          -3.8140    2.4080    0.6579 H       1  UNL1        0.0464
     44 H          -4.2399    1.4773   -0.7970 H       1  UNL1        0.0464
     45 H          -2.5310    2.3771   -2.1087 H       1  UNL1        0.0286
     46 H          -2.8589    3.7178   -0.9794 H       1  UNL1        0.0286
     47 H          -0.4959    3.2699   -1.3789 H       1  UNL1        0.0347
     48 H          -0.8584    4.2579    0.8709 H       1  UNL1        0.0236
     49 H           0.2372    2.8691    1.0435 H       1  UNL1        0.0236
     50 H          -1.4668    2.6417    1.4765 H       1  UNL1        0.0236
@<TRIPOS>BOND
     1     1     2    1
     2     2     3    1
     3     3     4   ar
     4     4     5   ar
     5     5     6    1
     6     6     7    1
     7     7     8   ar
     8     8     9   ar
     9     9    10   ar
    10    10    11    1
    11    10    12   ar
    12    12    13   ar
    13    13    14    1
    14     5    15   ar
    15    15    16   ar
    16    16    17   ar
    17    17    18    1
    18    18    19    1
    19    19    20    1
    20    20    21    1
    21    18    22    1
    22    22    23    1
    23    23    24    1
    24    24    25    1
    25    17     3   ar
    26    13     7   ar
    27    24    16    1
    28     1    26    1
    29     1    27    1
    30     1    28    1
    31     4    29    1
    32     6    30    1
    33     6    31    1
    34     8    32    1
    35    11    33    1
    36    11    34    1
    37    14    35    1
    38    14    36    1
    39    15    37    1
    40    19    38    1
    41    19    39    1
    42    20    40    1
    43    20    41    1
    44    21    42    1
    45    22    43    1
    46    22    44    1
    47    23    45    1
    48    23    46    1
    49    24    47    1
    50    25    48    1
    51    25    49    1
    52    25    50    1
