
     RDKit          3D

 51 54  0  0  0  0  0  0  0  0999 V2000
    0.8372    0.4296    3.2208 C   0  0  0  0  0  0  0  0  0  0  0  0
    0.5750    0.5090    1.8360 O   0  0  0  0  0  0  0  0  0  0  0  0
   -0.7308    0.3465    1.4073 C   0  0  0  0  0  0  0  0  0  0  0  0
   -1.7466    0.1139    2.3397 C   0  0  0  0  0  0  0  0  0  0  0  0
   -3.0323   -0.0406    1.8908 C   0  0  0  0  0  0  0  0  0  0  0  0
   -3.3728    0.0226    0.5593 C   0  0  0  0  0  0  0  0  0  0  0  0
   -4.7409   -0.1740    0.1213 C   0  0  0  0  0  0  0  0  0  0  0  0
   -5.8992   -0.3188   -0.2484 C   0  0  0  0  0  0  0  0  0  0  0  0
   -7.2668   -0.4761   -0.7008 C   0  0  0  0  0  0  0  0  0  0  0  0
   -7.3801   -1.1704   -2.0216 C   0  0  0  0  0  0  0  0  0  0  0  0
   -7.8537    0.9300   -0.8313 C   0  0  0  0  0  0  0  0  0  0  0  0
   -8.0645   -1.1449    0.2166 O   0  0  0  0  0  0  0  0  0  0  0  0
   -2.3559    0.2518   -0.3280 C   0  0  0  0  0  0  0  0  0  0  0  0
   -1.0132    0.4189    0.0639 C   0  0  0  0  0  0  0  0  0  0  0  0
   -0.0029    0.5972   -0.9527 C   0  0  0  0  0  0  0  0  0  0  0  0
   -0.3062    0.8732   -2.2610 N   0  0  0  0  0  0  0  0  0  0  0  0
    0.7991    0.9381   -2.9835 N   0  0  0  0  0  0  0  0  0  0  0  0
    1.8693    0.7095   -2.1906 C   0  0  0  0  0  0  0  0  0  0  0  0
    3.1712    0.6576   -2.4715 N   0  0  0  0  0  0  0  0  0  0  0  0
    4.0252    0.3814   -1.4536 C   0  0  0  0  0  0  0  0  0  0  0  0
    5.4348    0.3027   -1.6592 N   0  0  0  0  0  0  0  0  0  0  0  0
    6.3253   -0.0934   -0.6350 C   0  0  0  0  0  0  0  0  0  0  0  0
    7.3131    0.7029   -0.1572 C   0  0  0  0  0  0  0  0  0  0  0  0
    8.1890    0.3035    0.8471 C   0  0  0  0  0  0  0  0  0  0  0  0
    8.0595   -0.9651    1.3961 C   0  0  0  0  0  0  0  0  0  0  0  0
    8.9066   -1.3799    2.3811 F   0  0  0  0  0  0  0  0  0  0  0  0
    7.0609   -1.7800    0.9176 C   0  0  0  0  0  0  0  0  0  0  0  0
    6.1976   -1.3700   -0.0812 C   0  0  0  0  0  0  0  0  0  0  0  0
    5.2197   -2.1658   -0.5642 F   0  0  0  0  0  0  0  0  0  0  0  0
    3.5313    0.1670   -0.1772 C   0  0  0  0  0  0  0  0  0  0  0  0
    2.2198    0.2313    0.0467 N   0  0  0  0  0  0  0  0  0  0  0  0
    1.3553    0.4992   -0.9314 C   0  0  0  0  0  0  0  0  0  0  0  0
    0.4574   -0.5206    3.6762 H   0  0  0  0  0  0  0  0  0  0  0  0
    1.9138    0.4800    3.4543 H   0  0  0  0  0  0  0  0  0  0  0  0
    0.2738    1.2369    3.7749 H   0  0  0  0  0  0  0  0  0  0  0  0
   -1.4656    0.0676    3.3811 H   0  0  0  0  0  0  0  0  0  0  0  0
   -3.8344   -0.2233    2.6063 H   0  0  0  0  0  0  0  0  0  0  0  0
   -7.6393   -2.2486   -1.9096 H   0  0  0  0  0  0  0  0  0  0  0  0
   -8.2009   -0.7294   -2.6607 H   0  0  0  0  0  0  0  0  0  0  0  0
   -6.4292   -1.0500   -2.5676 H   0  0  0  0  0  0  0  0  0  0  0  0
   -7.1709    1.5136   -1.5103 H   0  0  0  0  0  0  0  0  0  0  0  0
   -7.8744    1.3573    0.1845 H   0  0  0  0  0  0  0  0  0  0  0  0
   -8.8550    0.8554   -1.2907 H   0  0  0  0  0  0  0  0  0  0  0  0
   -7.9659   -0.7792    1.1355 H   0  0  0  0  0  0  0  0  0  0  0  0
   -2.5914    0.3068   -1.3953 H   0  0  0  0  0  0  0  0  0  0  0  0
   -1.2514    1.0212   -2.6737 H   0  0  0  0  0  0  0  0  0  0  0  0
    5.7802    0.5619   -2.6310 H   0  0  0  0  0  0  0  0  0  0  0  0
    7.4582    1.7105   -0.5528 H   0  0  0  0  0  0  0  0  0  0  0  0
    8.9670    0.9697    1.2009 H   0  0  0  0  0  0  0  0  0  0  0  0
    6.9341   -2.7886    1.3315 H   0  0  0  0  0  0  0  0  0  0  0  0
    4.1698   -0.0480    0.6626 H   0  0  0  0  0  0  0  0  0  0  0  0
  1  2  1  0
  2  3  1  0
  3  4  2  0
  4  5  1  0
  5  6  2  0
  6  7  1  0
  7  8  3  0
  8  9  1  0
  9 10  1  0
  9 11  1  0
  9 12  1  0
  6 13  1  0
 13 14  2  0
 14 15  1  0
 15 16  1  0
 16 17  1  0
 17 18  2  0
 18 19  1  0
 19 20  2  0
 20 21  1  0
 21 22  1  0
 22 23  2  0
 23 24  1  0
 24 25  2  0
 25 26  1  0
 25 27  1  0
 27 28  2  0
 28 29  1  0
 20 30  1  0
 30 31  2  0
 31 32  1  0
 14  3  1  0
 32 15  2  0
 32 18  1  0
 28 22  1  0
  1 33  1  0
  1 34  1  0
  1 35  1  0
  4 36  1  0
  5 37  1  0
 10 38  1  0
 10 39  1  0
 10 40  1  0
 11 41  1  0
 11 42  1  0
 11 43  1  0
 12 44  1  0
 13 45  1  0
 16 46  1  0
 21 47  1  0
 23 48  1  0
 24 49  1  0
 27 50  1  0
 30 51  1  0
M  END
$$$$
