@<TRIPOS>MOLECULE
*****
 51 54 0 0 0
SMALL
GASTEIGER

@<TRIPOS>ATOM
      1 C           0.8372    0.4296    3.2208 C.3     1  UNL1        0.0788
      2 O           0.5750    0.5090    1.8360 O.3     1  UNL1       -0.4945
      3 C          -0.7308    0.3465    1.4073 C.ar    1  UNL1        0.1294
      4 C          -1.7466    0.1139    2.3397 C.ar    1  UNL1       -0.0181
      5 C          -3.0323   -0.0406    1.8908 C.ar    1  UNL1       -0.0428
      6 C          -3.3728    0.0226    0.5593 C.ar    1  UNL1        0.0259
      7 C          -4.7409   -0.1740    0.1213 C.1     1  UNL1       -0.0634
      8 C          -5.8992   -0.3188   -0.2484 C.1     1  UNL1       -0.0630
      9 C          -7.2668   -0.4761   -0.7008 C.3     1  UNL1        0.1212
     10 C          -7.3801   -1.1704   -2.0216 C.3     1  UNL1       -0.0249
     11 C          -7.8537    0.9300   -0.8313 C.3     1  UNL1       -0.0249
     12 O          -8.0645   -1.1449    0.2166 O.3     1  UNL1       -0.3771
     13 C          -2.3559    0.2518   -0.3280 C.ar    1  UNL1       -0.0336
     14 C          -1.0132    0.4189    0.0639 C.ar    1  UNL1        0.0447
     15 C          -0.0029    0.5972   -0.9527 C.ar    1  UNL1        0.0968
     16 N          -0.3062    0.8732   -2.2610 N.ar    1  UNL1       -0.2727
     17 N           0.7991    0.9381   -2.9835 N.ar    1  UNL1       -0.1515
     18 C           1.8693    0.7095   -2.1906 C.ar    1  UNL1        0.2018
     19 N           3.1712    0.6576   -2.4715 N.ar    1  UNL1       -0.2079
     20 C           4.0252    0.3814   -1.4536 C.ar    1  UNL1        0.1437
     21 N           5.4348    0.3027   -1.6592 N.pl3   1  UNL1       -0.2959
     22 C           6.3253   -0.0934   -0.6350 C.ar    1  UNL1        0.0683
     23 C           7.3131    0.7029   -0.1572 C.ar    1  UNL1       -0.0350
     24 C           8.1890    0.3035    0.8471 C.ar    1  UNL1       -0.0245
     25 C           8.0595   -0.9651    1.3961 C.ar    1  UNL1        0.1262
     26 F           8.9066   -1.3799    2.3811 F       1  UNL1       -0.2054
     27 C           7.0609   -1.7800    0.9176 C.ar    1  UNL1        0.0106
     28 C           6.1976   -1.3700   -0.0812 C.ar    1  UNL1        0.1472
     29 F           5.2197   -2.1658   -0.5642 F       1  UNL1       -0.2035
     30 C           3.5313    0.1670   -0.1772 C.ar    1  UNL1        0.0685
     31 N           2.2198    0.2313    0.0467 N.ar    1  UNL1       -0.2462
     32 C           1.3553    0.4992   -0.9314 C.ar    1  UNL1        0.1350
     33 H           0.4574   -0.5206    3.6762 H       1  UNL1        0.0660
     34 H           1.9138    0.4800    3.4543 H       1  UNL1        0.0660
     35 H           0.2738    1.2369    3.7749 H       1  UNL1        0.0660
     36 H          -1.4656    0.0676    3.3811 H       1  UNL1        0.0655
     37 H          -3.8344   -0.2233    2.6063 H       1  UNL1        0.0631
     38 H          -7.6393   -2.2486   -1.9096 H       1  UNL1        0.0267
     39 H          -8.2009   -0.7294   -2.6607 H       1  UNL1        0.0267
     40 H          -6.4292   -1.0500   -2.5676 H       1  UNL1        0.0267
     41 H          -7.1709    1.5136   -1.5103 H       1  UNL1        0.0267
     42 H          -7.8744    1.3573    0.1845 H       1  UNL1        0.0267
     43 H          -8.8550    0.8554   -1.2907 H       1  UNL1        0.0267
     44 H          -7.9659   -0.7792    1.1355 H       1  UNL1        0.2114
     45 H          -2.5914    0.3068   -1.3953 H       1  UNL1        0.0637
     46 H          -1.2514    1.0212   -2.6737 H       1  UNL1        0.1891
     47 H           5.7802    0.5619   -2.6310 H       1  UNL1        0.1537
     48 H           7.4582    1.7105   -0.5528 H       1  UNL1        0.0638
     49 H           8.9670    0.9697    1.2009 H       1  UNL1        0.0647
     50 H           6.9341   -2.7886    1.3315 H       1  UNL1        0.0675
     51 H           4.1698   -0.0480    0.6626 H       1  UNL1        0.0865
@<TRIPOS>BOND
     1     1     2    1
     2     2     3    1
     3     3     4   ar
     4     4     5   ar
     5     5     6   ar
     6     6     7    1
     7     7     8    3
     8     8     9    1
     9     9    10    1
    10     9    11    1
    11     9    12    1
    12     6    13   ar
    13    13    14   ar
    14    14    15    1
    15    15    16   ar
    16    16    17   ar
    17    17    18   ar
    18    18    19   ar
    19    19    20   ar
    20    20    21    1
    21    21    22    1
    22    22    23   ar
    23    23    24   ar
    24    24    25   ar
    25    25    26    1
    26    25    27   ar
    27    27    28   ar
    28    28    29    1
    29    20    30   ar
    30    30    31   ar
    31    31    32   ar
    32    14     3   ar
    33    32    15   ar
    34    32    18   ar
    35    28    22   ar
    36     1    33    1
    37     1    34    1
    38     1    35    1
    39     4    36    1
    40     5    37    1
    41    10    38    1
    42    10    39    1
    43    10    40    1
    44    11    41    1
    45    11    42    1
    46    11    43    1
    47    12    44    1
    48    13    45    1
    49    16    46    1
    50    21    47    1
    51    23    48    1
    52    24    49    1
    53    27    50    1
    54    30    51    1
