
     RDKit          3D

 49 52  0  0  0  0  0  0  0  0999 V2000
    4.1500    0.2711   -2.4850 O   0  0  0  0  0  0  0  0  0  0  0  0
    3.7191    0.0560   -1.3327 C   0  0  0  0  0  0  0  0  0  0  0  0
    2.6062   -0.8978   -1.1503 C   0  0  0  0  0  0  0  0  0  0  0  0
    2.7920   -2.1662   -0.6548 C   0  0  0  0  0  0  0  0  0  0  0  0
    1.7054   -2.9973   -0.5422 C   0  0  0  0  0  0  0  0  0  0  0  0
    0.4299   -2.5678   -0.9224 C   0  0  0  0  0  0  0  0  0  0  0  0
    0.2187   -1.3090   -1.4170 C   0  0  0  0  0  0  0  0  0  0  0  0
   -1.3591   -0.7203   -1.9348 S   0  0  0  0  0  6  0  0  0  0  0  0
   -1.9916   -1.8504   -2.7235 O   0  0  0  0  0  0  0  0  0  0  0  0
   -1.0486    0.3685   -2.9571 O   0  0  0  0  0  0  0  0  0  0  0  0
   -2.3759   -0.2214   -0.7324 N   0  0  0  0  0  0  0  0  0  0  0  0
   -2.7735   -1.1860    0.2055 C   0  0  0  0  0  0  0  0  0  0  0  0
   -4.2844   -1.4593   -0.0240 C   0  0  0  0  0  0  0  0  0  0  0  0
   -4.9646   -0.1692    0.1870 C   0  0  0  0  0  0  0  0  0  0  0  0
   -6.2370   -0.0987    0.7569 C   0  0  0  0  0  0  0  0  0  0  0  0
   -6.8730    1.1232    0.9556 C   0  0  0  0  0  0  0  0  0  0  0  0
   -6.2527    2.2947    0.5898 C   0  0  0  0  0  0  0  0  0  0  0  0
   -4.9961    2.2417    0.0252 C   0  0  0  0  0  0  0  0  0  0  0  0
   -4.3825    1.0095   -0.1619 C   0  0  0  0  0  0  0  0  0  0  0  0
   -3.0187    1.0095   -0.7686 C   0  0  0  0  0  0  0  0  0  0  0  0
    1.3379   -0.4983   -1.5163 C   0  0  0  0  0  0  0  0  0  0  0  0
    4.3236    0.7499   -0.2469 N   0  0  0  0  0  0  0  0  0  0  0  0
    3.9496    0.5780    1.1408 C   0  0  0  0  0  0  0  0  0  0  0  0
    5.1852   -0.0089    1.8393 C   0  0  0  0  0  0  0  0  0  0  0  0
    6.3425    0.3865    1.1769 O   0  0  0  0  0  0  0  0  0  0  0  0
    6.2944    1.6988    0.7126 C   0  0  0  0  0  0  0  0  0  0  0  0
    5.3802    1.7345   -0.5043 C   0  0  0  0  0  0  0  0  0  0  0  0
    3.7925   -2.4718   -0.3641 H   0  0  0  0  0  0  0  0  0  0  0  0
    1.8492   -4.0090   -0.1486 H   0  0  0  0  0  0  0  0  0  0  0  0
   -0.4148   -3.2564   -0.8268 H   0  0  0  0  0  0  0  0  0  0  0  0
   -2.7611   -0.7045    1.2258 H   0  0  0  0  0  0  0  0  0  0  0  0
   -2.1967   -2.1064    0.1757 H   0  0  0  0  0  0  0  0  0  0  0  0
   -4.3875   -1.8368   -1.0692 H   0  0  0  0  0  0  0  0  0  0  0  0
   -4.6295   -2.2647    0.6442 H   0  0  0  0  0  0  0  0  0  0  0  0
   -6.7142   -1.0263    1.0387 H   0  0  0  0  0  0  0  0  0  0  0  0
   -7.8484    1.0859    1.4020 H   0  0  0  0  0  0  0  0  0  0  0  0
   -6.7833    3.2290    0.7647 H   0  0  0  0  0  0  0  0  0  0  0  0
   -4.5375    3.1774   -0.2522 H   0  0  0  0  0  0  0  0  0  0  0  0
   -3.0649    1.4906   -1.7773 H   0  0  0  0  0  0  0  0  0  0  0  0
   -2.4061    1.7464   -0.1489 H   0  0  0  0  0  0  0  0  0  0  0  0
    1.1500    0.5041   -1.9136 H   0  0  0  0  0  0  0  0  0  0  0  0
    3.0776   -0.0965    1.2748 H   0  0  0  0  0  0  0  0  0  0  0  0
    3.6991    1.5160    1.6630 H   0  0  0  0  0  0  0  0  0  0  0  0
    5.2101    0.2469    2.9219 H   0  0  0  0  0  0  0  0  0  0  0  0
    5.1102   -1.1190    1.7370 H   0  0  0  0  0  0  0  0  0  0  0  0
    7.2940    2.0868    0.5202 H   0  0  0  0  0  0  0  0  0  0  0  0
    5.8082    2.3410    1.4841 H   0  0  0  0  0  0  0  0  0  0  0  0
    4.9343    2.7412   -0.6737 H   0  0  0  0  0  0  0  0  0  0  0  0
    5.9421    1.3547   -1.3872 H   0  0  0  0  0  0  0  0  0  0  0  0
  1  2  2  0
  2  3  1  0
  3  4  2  0
  4  5  1  0
  5  6  2  0
  6  7  1  0
  7  8  1  0
  8  9  2  0
  8 10  2  0
  8 11  1  0
 11 12  1  0
 12 13  1  0
 13 14  1  0
 14 15  2  0
 15 16  1  0
 16 17  2  0
 17 18  1  0
 18 19  2  0
 19 20  1  0
  7 21  2  0
  2 22  1  0
 22 23  1  0
 23 24  1  0
 24 25  1  0
 25 26  1  0
 26 27  1  0
 21  3  1  0
 27 22  1  0
 20 11  1  0
 19 14  1  0
  4 28  1  0
  5 29  1  0
  6 30  1  0
 12 31  1  0
 12 32  1  0
 13 33  1  0
 13 34  1  0
 15 35  1  0
 16 36  1  0
 17 37  1  0
 18 38  1  0
 20 39  1  0
 20 40  1  0
 21 41  1  0
 23 42  1  0
 23 43  1  0
 24 44  1  0
 24 45  1  0
 26 46  1  0
 26 47  1  0
 27 48  1  0
 27 49  1  0
M  END
$$$$
