@<TRIPOS>MOLECULE
*****
 49 52 0 0 0
SMALL
GASTEIGER

@<TRIPOS>ATOM
      1 O           4.1500    0.2711   -2.4850 O.2     1  UNL1       -0.2700
      2 C           3.7191    0.0560   -1.3327 C.2     1  UNL1        0.2468
      3 C           2.6062   -0.8978   -1.1503 C.ar    1  UNL1        0.0387
      4 C           2.7920   -2.1662   -0.6548 C.ar    1  UNL1       -0.0495
      5 C           1.7054   -2.9973   -0.5422 C.ar    1  UNL1       -0.0592
      6 C           0.4299   -2.5678   -0.9224 C.ar    1  UNL1       -0.0353
      7 C           0.2187   -1.3090   -1.4170 C.ar    1  UNL1        0.1062
      8 S          -1.3591   -0.7203   -1.9348 S.O2    1  UNL1        0.0612
      9 O          -1.9916   -1.8504   -2.7235 O.2     1  UNL1       -0.1528
     10 O          -1.0486    0.3685   -2.9571 O.2     1  UNL1       -0.1528
     11 N          -2.3759   -0.2214   -0.7324 N.3     1  UNL1       -0.1720
     12 C          -2.7735   -1.1860    0.2055 C.3     1  UNL1        0.0248
     13 C          -4.2844   -1.4593   -0.0240 C.3     1  UNL1       -0.0129
     14 C          -4.9646   -0.1692    0.1870 C.ar    1  UNL1       -0.0416
     15 C          -6.2370   -0.0987    0.7569 C.ar    1  UNL1       -0.0582
     16 C          -6.8730    1.1232    0.9556 C.ar    1  UNL1       -0.0615
     17 C          -6.2527    2.2947    0.5898 C.ar    1  UNL1       -0.0614
     18 C          -4.9961    2.2417    0.0252 C.ar    1  UNL1       -0.0570
     19 C          -4.3825    1.0095   -0.1619 C.ar    1  UNL1       -0.0285
     20 C          -3.0187    1.0095   -0.7686 C.3     1  UNL1        0.0458
     21 C           1.3379   -0.4983   -1.5163 C.ar    1  UNL1       -0.0232
     22 N           4.3236    0.7499   -0.2469 N.am    1  UNL1       -0.2932
     23 C           3.9496    0.5780    1.1408 C.3     1  UNL1        0.0385
     24 C           5.1852   -0.0089    1.8393 C.3     1  UNL1        0.0635
     25 O           6.3425    0.3865    1.1769 O.3     1  UNL1       -0.3767
     26 C           6.2944    1.6988    0.7126 C.3     1  UNL1        0.0635
     27 C           5.3802    1.7345   -0.5043 C.3     1  UNL1        0.0385
     28 H           3.7925   -2.4718   -0.3641 H       1  UNL1        0.0625
     29 H           1.8492   -4.0090   -0.1486 H       1  UNL1        0.0618
     30 H          -0.4148   -3.2564   -0.8268 H       1  UNL1        0.0637
     31 H          -2.7611   -0.7045    1.2258 H       1  UNL1        0.0447
     32 H          -2.1967   -2.1064    0.1757 H       1  UNL1        0.0447
     33 H          -4.3875   -1.8368   -1.0692 H       1  UNL1        0.0326
     34 H          -4.6295   -2.2647    0.6442 H       1  UNL1        0.0326
     35 H          -6.7142   -1.0263    1.0387 H       1  UNL1        0.0620
     36 H          -7.8484    1.0859    1.4020 H       1  UNL1        0.0618
     37 H          -6.7833    3.2290    0.7647 H       1  UNL1        0.0618
     38 H          -4.5375    3.1774   -0.2522 H       1  UNL1        0.0621
     39 H          -3.0649    1.4906   -1.7773 H       1  UNL1        0.0493
     40 H          -2.4061    1.7464   -0.1489 H       1  UNL1        0.0493
     41 H           1.1500    0.5041   -1.9136 H       1  UNL1        0.0644
     42 H           3.0776   -0.0965    1.2748 H       1  UNL1        0.0487
     43 H           3.6991    1.5160    1.6630 H       1  UNL1        0.0487
     44 H           5.2101    0.2469    2.9219 H       1  UNL1        0.0575
     45 H           5.1102   -1.1190    1.7370 H       1  UNL1        0.0575
     46 H           7.2940    2.0868    0.5202 H       1  UNL1        0.0575
     47 H           5.8082    2.3410    1.4841 H       1  UNL1        0.0575
     48 H           4.9343    2.7412   -0.6737 H       1  UNL1        0.0487
     49 H           5.9421    1.3547   -1.3872 H       1  UNL1        0.0487
@<TRIPOS>BOND
     1     1     2    2
     2     2     3    1
     3     3     4   ar
     4     4     5   ar
     5     5     6   ar
     6     6     7   ar
     7     7     8    1
     8     8     9    2
     9     8    10    2
    10     8    11    1
    11    11    12    1
    12    12    13    1
    13    13    14    1
    14    14    15   ar
    15    15    16   ar
    16    16    17   ar
    17    17    18   ar
    18    18    19   ar
    19    19    20    1
    20     7    21   ar
    21     2    22   am
    22    22    23    1
    23    23    24    1
    24    24    25    1
    25    25    26    1
    26    26    27    1
    27    21     3   ar
    28    27    22    1
    29    20    11    1
    30    19    14   ar
    31     4    28    1
    32     5    29    1
    33     6    30    1
    34    12    31    1
    35    12    32    1
    36    13    33    1
    37    13    34    1
    38    15    35    1
    39    16    36    1
    40    17    37    1
    41    18    38    1
    42    20    39    1
    43    20    40    1
    44    21    41    1
    45    23    42    1
    46    23    43    1
    47    24    44    1
    48    24    45    1
    49    26    46    1
    50    26    47    1
    51    27    48    1
    52    27    49    1
