@<TRIPOS>MOLECULE
*****
 55 58 0 0 0
SMALL
GASTEIGER

@<TRIPOS>ATOM
      1 C           5.3204   -1.7062   -1.2913 C.3     1  UNL1        0.0788
      2 O           4.4196   -1.2531   -0.3068 O.3     1  UNL1       -0.4946
      3 C           4.3998    0.0962    0.0078 C.ar    1  UNL1        0.1316
      4 C           5.2826    0.9395   -0.6740 C.ar    1  UNL1       -0.0005
      5 C           5.3275    2.2912   -0.4208 C.ar    1  UNL1        0.0195
      6 C           6.2569    3.2138   -1.1313 C.3     1  UNL1       -0.0242
      7 N           4.4756    2.7428    0.5157 N.ar    1  UNL1       -0.3260
      8 C           3.6092    1.9838    1.2000 C.ar    1  UNL1        0.2571
      9 O           2.8432    2.5301    2.0755 O.2     1  UNL1       -0.2674
     10 C           3.5574    0.6339    0.9531 C.ar    1  UNL1        0.0756
     11 C           2.6186   -0.2090    1.6973 C.3     1  UNL1        0.0487
     12 N           1.4619   -0.6650    1.0048 N.am    1  UNL1       -0.2925
     13 C           1.5378   -1.9525    0.3232 C.3     1  UNL1        0.0194
     14 C           0.2880   -2.7755    0.4304 C.3     1  UNL1       -0.0097
     15 C          -0.9657   -1.9963    0.3697 C.ar    1  UNL1       -0.0141
     16 C          -2.1296   -2.6980    0.0529 C.ar    1  UNL1        0.0453
     17 CL         -2.1190   -4.4196   -0.2617 Cl      1  UNL1       -0.0832
     18 C          -3.3431   -2.0033   -0.0156 C.ar    1  UNL1       -0.0360
     19 C          -3.4156   -0.6656    0.2182 C.ar    1  UNL1        0.0020
     20 C          -4.7077    0.0393    0.1215 C.3     1  UNL1        0.0917
     21 O          -5.6696   -0.8386    0.6740 O.3     1  UNL1       -0.3747
     22 C          -6.3383   -0.2491    1.7400 C.3     1  UNL1        0.0372
     23 C          -5.0817    0.2346   -1.3096 C.3     1  UNL1        0.0362
     24 C          -4.1303    1.0214   -2.1434 C.3     1  UNL1        0.0553
     25 O          -4.7082    2.2244   -1.6889 O.3     1  UNL1       -0.3789
     26 C          -5.9033    1.4844   -1.5862 C.3     1  UNL1        0.0553
     27 C          -2.2452    0.0036    0.5306 C.ar    1  UNL1        0.0590
     28 CL         -2.2975    1.7000    0.8550 Cl      1  UNL1       -0.0824
     29 C          -1.0359   -0.6574    0.6043 C.ar    1  UNL1        0.0601
     30 C           0.2107    0.0229    0.9299 C.2     1  UNL1        0.2486
     31 O           0.2352    1.2584    1.1608 O.2     1  UNL1       -0.2699
     32 H           5.2140   -1.1527   -2.2511 H       1  UNL1        0.0660
     33 H           5.2038   -2.7859   -1.5075 H       1  UNL1        0.0660
     34 H           6.3794   -1.5583   -0.9801 H       1  UNL1        0.0660
     35 H           5.9636    0.5593   -1.4268 H       1  UNL1        0.0671
     36 H           6.3909    2.9548   -2.1956 H       1  UNL1        0.0292
     37 H           5.7445    4.2118   -1.1275 H       1  UNL1        0.0292
     38 H           7.2451    3.2692   -0.6500 H       1  UNL1        0.0292
     39 H           4.5129    3.7885    0.7094 H       1  UNL1        0.1686
     40 H           3.1611   -1.1016    2.1241 H       1  UNL1        0.0517
     41 H           2.2548    0.3352    2.6176 H       1  UNL1        0.0517
     42 H           1.7713   -1.7810   -0.7289 H       1  UNL1        0.0468
     43 H           2.3469   -2.5837    0.7686 H       1  UNL1        0.0468
     44 H           0.3250   -3.4670    1.3021 H       1  UNL1        0.0329
     45 H           0.2800   -3.4534   -0.4731 H       1  UNL1        0.0329
     46 H          -4.2534   -2.5257   -0.2586 H       1  UNL1        0.0636
     47 H          -4.7093    1.0041    0.6708 H       1  UNL1        0.0651
     48 H          -5.6617    0.0357    2.5538 H       1  UNL1        0.0524
     49 H          -7.0382   -1.0162    2.1294 H       1  UNL1        0.0524
     50 H          -6.9970    0.6021    1.4052 H       1  UNL1        0.0524
     51 H          -5.5056   -0.6791   -1.7716 H       1  UNL1        0.0374
     52 H          -4.3339    0.8275   -3.2252 H       1  UNL1        0.0564
     53 H          -3.0733    0.9974   -1.9062 H       1  UNL1        0.0564
     54 H          -6.5721    1.8088   -0.7883 H       1  UNL1        0.0564
     55 H          -6.4028    1.3792   -2.5703 H       1  UNL1        0.0564
@<TRIPOS>BOND
     1     1     2    1
     2     2     3    1
     3     3     4   ar
     4     4     5   ar
     5     5     6    1
     6     5     7   ar
     7     7     8   ar
     8     8     9    2
     9     8    10   ar
    10    10    11    1
    11    11    12    1
    12    12    13    1
    13    13    14    1
    14    14    15    1
    15    15    16   ar
    16    16    17    1
    17    16    18   ar
    18    18    19   ar
    19    19    20    1
    20    20    21    1
    21    21    22    1
    22    20    23    1
    23    23    24    1
    24    24    25    1
    25    25    26    1
    26    19    27   ar
    27    27    28    1
    28    27    29   ar
    29    29    30    1
    30    30    31    2
    31    10     3   ar
    32    30    12   am
    33    29    15   ar
    34    26    23    1
    35     1    32    1
    36     1    33    1
    37     1    34    1
    38     4    35    1
    39     6    36    1
    40     6    37    1
    41     6    38    1
    42     7    39    1
    43    11    40    1
    44    11    41    1
    45    13    42    1
    46    13    43    1
    47    14    44    1
    48    14    45    1
    49    18    46    1
    50    20    47    1
    51    22    48    1
    52    22    49    1
    53    22    50    1
    54    23    51    1
    55    24    52    1
    56    24    53    1
    57    26    54    1
    58    26    55    1
