@<TRIPOS>MOLECULE
*****
 60 64 0 0 0
SMALL
GASTEIGER

@<TRIPOS>ATOM
      1 C           2.1804   -0.9885    1.2969 C.3     1  UNL1       -0.0439
      2 C           1.4167   -0.6428    0.0376 C.3     1  UNL1        0.0484
      3 C           0.0261   -0.2803    0.3297 C.ar    1  UNL1        0.0365
      4 C          -1.0187   -0.9927    0.8302 C.ar    1  UNL1       -0.0353
      5 C          -2.1570   -0.1905    0.8812 C.ar    1  UNL1       -0.0173
      6 C          -3.5176   -0.6129    1.2748 C.3     1  UNL1       -0.0004
      7 C          -4.0728   -1.7182    0.4918 C.ar    1  UNL1       -0.0430
      8 C          -4.6189   -2.7703    1.2547 C.ar    1  UNL1       -0.0583
      9 C          -5.1058   -3.9183    0.6894 C.ar    1  UNL1       -0.0615
     10 C          -5.0708   -4.0711   -0.6699 C.ar    1  UNL1       -0.0617
     11 C          -4.5390   -3.0466   -1.4200 C.ar    1  UNL1       -0.0615
     12 C          -4.0399   -1.8736   -0.8711 C.ar    1  UNL1       -0.0583
     13 C          -1.7636    1.0310    0.3993 C.ar    1  UNL1        0.0529
     14 C          -2.5933    2.2300    0.2911 C.ar    1  UNL1       -0.0012
     15 C          -3.8120    2.2394   -0.3382 C.ar    1  UNL1       -0.0526
     16 C          -4.6314    3.3765   -0.3394 C.ar    1  UNL1       -0.0611
     17 C          -4.1804    4.5107    0.3155 C.ar    1  UNL1       -0.0617
     18 C          -2.9562    4.5319    0.9539 C.ar    1  UNL1       -0.0611
     19 C          -2.1837    3.3927    0.9318 C.ar    1  UNL1       -0.0526
     20 N          -0.4696    0.9629    0.0780 N.ar    1  UNL1       -0.3409
     21 C           0.4879    1.9269   -0.4184 C.3     1  UNL1        0.0364
     22 C           1.3023    1.2523   -1.4631 C.3     1  UNL1        0.0178
     23 N           2.1143    0.2231   -0.8757 N.3     1  UNL1       -0.2883
     24 C           3.2986    0.8363   -0.3221 C.3     1  UNL1        0.0294
     25 C           4.4461   -0.0574   -0.5960 C.ar    1  UNL1        0.0243
     26 C           4.4150   -0.9843   -1.6450 C.ar    1  UNL1        0.0388
     27 N           5.4958   -1.7426   -1.8915 N.ar    1  UNL1       -0.2227
     28 C           6.6403   -1.6803   -1.1928 C.ar    1  UNL1        0.2142
     29 N           7.7646   -2.4854   -1.4804 N.pl3   1  UNL1       -0.3274
     30 N           6.6608   -0.7845   -0.1837 N.ar    1  UNL1       -0.1998
     31 C           5.6113    0.0022    0.1141 C.ar    1  UNL1        0.1257
     32 N           5.6829    0.9500    1.2024 N.pl3   1  UNL1       -0.3428
     33 H           3.1178   -1.5203    1.0527 H       1  UNL1        0.0248
     34 H           1.5352   -1.7460    1.8158 H       1  UNL1        0.0248
     35 H           2.2685   -0.1677    2.0154 H       1  UNL1        0.0248
     36 H           1.3444   -1.6344   -0.5278 H       1  UNL1        0.0524
     37 H          -1.0801   -2.0304    1.1745 H       1  UNL1        0.0639
     38 H          -4.1967    0.2864    1.2025 H       1  UNL1        0.0362
     39 H          -3.5499   -0.8607    2.3515 H       1  UNL1        0.0362
     40 H          -4.6735   -2.6703    2.3483 H       1  UNL1        0.0620
     41 H          -5.5075   -4.6946    1.3590 H       1  UNL1        0.0618
     42 H          -5.4410   -4.9579   -1.1177 H       1  UNL1        0.0618
     43 H          -4.5323   -3.2105   -2.5101 H       1  UNL1        0.0618
     44 H          -3.6237   -1.0892   -1.4896 H       1  UNL1        0.0620
     45 H          -4.1407    1.3503   -0.8615 H       1  UNL1        0.0624
     46 H          -5.5825    3.3289   -0.8431 H       1  UNL1        0.0618
     47 H          -4.8193    5.3960    0.3215 H       1  UNL1        0.0618
     48 H          -2.6197    5.4525    1.4654 H       1  UNL1        0.0618
     49 H          -1.2223    3.3677    1.4164 H       1  UNL1        0.0624
     50 H           0.0264    2.8350   -0.8601 H       1  UNL1        0.0504
     51 H           1.1299    2.1752    0.4670 H       1  UNL1        0.0504
     52 H           2.0315    2.0223   -1.8580 H       1  UNL1        0.0444
     53 H           0.7178    0.9310   -2.3232 H       1  UNL1        0.0444
     54 H           3.4961    1.8172   -0.8109 H       1  UNL1        0.0477
     55 H           3.2224    1.0290    0.7563 H       1  UNL1        0.0477
     56 H           3.5081   -1.0462   -2.1967 H       1  UNL1        0.0835
     57 H           7.7112   -3.5181   -1.4321 H       1  UNL1        0.1452
     58 H           8.6556   -2.0348   -1.7503 H       1  UNL1        0.1452
     59 H           5.4792    0.6363    2.1648 H       1  UNL1        0.1437
     60 H           5.9328    1.9272    1.0050 H       1  UNL1        0.1437
@<TRIPOS>BOND
     1     1     2    1
     2     2     3    1
     3     3     4   ar
     4     4     5   ar
     5     5     6    1
     6     6     7    1
     7     7     8   ar
     8     8     9   ar
     9     9    10   ar
    10    10    11   ar
    11    11    12   ar
    12     5    13   ar
    13    13    14    1
    14    14    15   ar
    15    15    16   ar
    16    16    17   ar
    17    17    18   ar
    18    18    19   ar
    19    13    20   ar
    20    20    21    1
    21    21    22    1
    22    22    23    1
    23    23    24    1
    24    24    25    1
    25    25    26   ar
    26    26    27   ar
    27    27    28   ar
    28    28    29    1
    29    28    30   ar
    30    30    31   ar
    31    31    32    1
    32    23     2    1
    33    31    25   ar
    34    20     3   ar
    35    12     7   ar
    36    19    14   ar
    37     1    33    1
    38     1    34    1
    39     1    35    1
    40     2    36    1
    41     4    37    1
    42     6    38    1
    43     6    39    1
    44     8    40    1
    45     9    41    1
    46    10    42    1
    47    11    43    1
    48    12    44    1
    49    15    45    1
    50    16    46    1
    51    17    47    1
    52    18    48    1
    53    19    49    1
    54    21    50    1
    55    21    51    1
    56    22    52    1
    57    22    53    1
    58    24    54    1
    59    24    55    1
    60    26    56    1
    61    29    57    1
    62    29    58    1
    63    32    59    1
    64    32    60    1
