
     RDKit          3D

 49 51  0  0  0  0  0  0  0  0999 V2000
   -5.2450   -0.9083    0.0558 C   0  0  0  0  0  0  0  0  0  0  0  0
   -4.7084   -0.9445    1.4034 N   0  0  0  0  0  0  0  0  0  0  0  0
   -3.3200   -1.2973    1.3480 C   0  0  0  0  0  0  0  0  0  0  0  0
   -2.4480   -0.2301    0.7227 C   0  0  0  0  0  0  0  0  0  0  0  0
   -1.1234   -0.7279    0.7411 O   0  0  0  0  0  0  0  0  0  0  0  0
   -0.0440   -0.0208    0.2501 C   0  0  0  0  0  0  0  0  0  0  0  0
   -0.2637    1.2201   -0.2776 C   0  0  0  0  0  0  0  0  0  0  0  0
    0.8284    1.9096   -0.7623 C   0  0  0  0  0  0  0  0  0  0  0  0
    2.1046    1.3917   -0.7289 C   0  0  0  0  0  0  0  0  0  0  0  0
    3.2139    2.1612   -1.2509 C   0  0  0  0  0  0  0  0  0  0  0  0
    3.0474    3.0317   -2.3063 C   0  0  0  0  0  0  0  0  0  0  0  0
    4.0955    3.7778   -2.8219 C   0  0  0  0  0  0  0  0  0  0  0  0
    5.3475    3.6596   -2.2769 C   0  0  0  0  0  0  0  0  0  0  0  0
    6.6764    4.6185   -2.9457 Cl  0  0  0  0  0  0  0  0  0  0  0  0
    5.5289    2.7976   -1.2266 C   0  0  0  0  0  0  0  0  0  0  0  0
    4.4791    2.0484   -0.7079 C   0  0  0  0  0  0  0  0  0  0  0  0
    2.2641    0.1281   -0.1814 C   0  0  0  0  0  0  0  0  0  0  0  0
    1.2090   -0.6037    0.3166 C   0  0  0  0  0  0  0  0  0  0  0  0
    1.3532   -1.9400    0.9012 C   0  0  0  0  0  0  0  0  0  0  0  0
    0.7399   -2.1512    1.9869 O   0  0  0  0  0  0  0  0  0  0  0  0
    2.1536   -2.9579    0.2672 C   0  0  0  0  0  0  0  0  0  0  0  0
    2.4962   -4.2285    0.5083 C   0  0  0  0  0  0  0  0  0  0  0  0
    3.2850   -4.9363   -0.3014 C   0  0  0  0  0  0  0  0  0  0  0  0
    3.7767   -4.3157   -1.4594 C   0  0  0  0  0  0  0  0  0  0  0  0
    3.0239   -2.6543   -1.2933 S   0  0  0  0  0  0  0  0  0  0  0  0
   -4.8445    0.3534    2.0495 C   0  0  0  0  0  0  0  0  0  0  0  0
   -6.2474    0.6903    2.3164 C   0  0  0  0  0  0  0  0  0  0  0  0
   -7.1631   -0.1056    2.0019 O   0  0  0  0  0  0  0  0  0  0  0  0
   -6.5944    1.8841    2.9169 O   0  0  0  0  0  0  0  0  0  0  0  0
   -6.3175   -1.1134    0.0725 H   0  0  0  0  0  0  0  0  0  0  0  0
   -4.6829   -1.6800   -0.5241 H   0  0  0  0  0  0  0  0  0  0  0  0
   -5.0624    0.0901   -0.3802 H   0  0  0  0  0  0  0  0  0  0  0  0
   -2.9126   -1.6315    2.3205 H   0  0  0  0  0  0  0  0  0  0  0  0
   -3.2453   -2.1935    0.6687 H   0  0  0  0  0  0  0  0  0  0  0  0
   -2.7997   -0.0531   -0.3162 H   0  0  0  0  0  0  0  0  0  0  0  0
   -2.4362    0.7019    1.3292 H   0  0  0  0  0  0  0  0  0  0  0  0
   -1.2388    1.6948   -0.3388 H   0  0  0  0  0  0  0  0  0  0  0  0
    0.7206    2.9138   -1.2004 H   0  0  0  0  0  0  0  0  0  0  0  0
    2.0797    3.1599   -2.7698 H   0  0  0  0  0  0  0  0  0  0  0  0
    3.9630    4.4613   -3.6508 H   0  0  0  0  0  0  0  0  0  0  0  0
    6.5137    2.7091   -0.8035 H   0  0  0  0  0  0  0  0  0  0  0  0
    4.6652    1.3813    0.1197 H   0  0  0  0  0  0  0  0  0  0  0  0
    3.2651   -0.2981   -0.1462 H   0  0  0  0  0  0  0  0  0  0  0  0
    2.0952   -4.7293    1.4494 H   0  0  0  0  0  0  0  0  0  0  0  0
    3.5872   -6.0171   -0.1140 H   0  0  0  0  0  0  0  0  0  0  0  0
    4.4236   -4.6467   -2.2769 H   0  0  0  0  0  0  0  0  0  0  0  0
   -4.4408    1.1329    1.3493 H   0  0  0  0  0  0  0  0  0  0  0  0
   -4.2322    0.2912    2.9828 H   0  0  0  0  0  0  0  0  0  0  0  0
   -7.5661    2.1761    2.9836 H   0  0  0  0  0  0  0  0  0  0  0  0
  1  2  1  0
  2  3  1  0
  3  4  1  0
  4  5  1  0
  5  6  1  0
  6  7  2  0
  7  8  1  0
  8  9  2  0
  9 10  1  0
 10 11  2  0
 11 12  1  0
 12 13  2  0
 13 14  1  0
 13 15  1  0
 15 16  2  0
  9 17  1  0
 17 18  2  0
 18 19  1  0
 19 20  2  0
 19 21  1  0
 21 22  2  0
 22 23  1  0
 23 24  2  0
 24 25  1  0
  2 26  1  0
 26 27  1  0
 27 28  2  0
 27 29  1  0
 18  6  1  0
 25 21  1  0
 16 10  1  0
  1 30  1  0
  1 31  1  0
  1 32  1  0
  3 33  1  0
  3 34  1  0
  4 35  1  0
  4 36  1  0
  7 37  1  0
  8 38  1  0
 11 39  1  0
 12 40  1  0
 15 41  1  0
 16 42  1  0
 17 43  1  0
 22 44  1  0
 23 45  1  0
 24 46  1  0
 26 47  1  0
 26 48  1  0
 29 49  1  0
M  END
$$$$
