@<TRIPOS>MOLECULE
*****
 49 51 0 0 0
SMALL
GASTEIGER

@<TRIPOS>ATOM
      1 C          -5.2450   -0.9083    0.0558 C.3     1  UNL1       -0.0121
      2 N          -4.7084   -0.9445    1.4034 N.3     1  UNL1       -0.2923
      3 C          -3.3200   -1.2973    1.3480 C.3     1  UNL1        0.0334
      4 C          -2.4480   -0.2301    0.7227 C.3     1  UNL1        0.1023
      5 O          -1.1234   -0.7279    0.7411 O.3     1  UNL1       -0.4900
      6 C          -0.0440   -0.0208    0.2501 C.ar    1  UNL1        0.1314
      7 C          -0.2637    1.2201   -0.2776 C.ar    1  UNL1       -0.0187
      8 C           0.8284    1.9096   -0.7623 C.ar    1  UNL1       -0.0505
      9 C           2.1046    1.3917   -0.7289 C.ar    1  UNL1       -0.0170
     10 C           3.2139    2.1612   -1.2509 C.ar    1  UNL1       -0.0178
     11 C           3.0474    3.0317   -2.3063 C.ar    1  UNL1       -0.0527
     12 C           4.0955    3.7778   -2.8219 C.ar    1  UNL1       -0.0428
     13 C           5.3475    3.6596   -2.2769 C.ar    1  UNL1        0.0410
     14 CL          6.6764    4.6185   -2.9457 Cl      1  UNL1       -0.0835
     15 C           5.5289    2.7976   -1.2266 C.ar    1  UNL1       -0.0428
     16 C           4.4791    2.0484   -0.7079 C.ar    1  UNL1       -0.0527
     17 C           2.2641    0.1281   -0.1814 C.ar    1  UNL1       -0.0396
     18 C           1.2090   -0.6037    0.3166 C.ar    1  UNL1        0.0649
     19 C           1.3532   -1.9400    0.9012 C.2     1  UNL1        0.2032
     20 O           0.7399   -2.1512    1.9869 O.2     1  UNL1       -0.2860
     21 C           2.1536   -2.9579    0.2672 C.ar    1  UNL1        0.0595
     22 C           2.4962   -4.2285    0.5083 C.ar    1  UNL1       -0.0438
     23 C           3.2850   -4.9363   -0.3014 C.ar    1  UNL1       -0.0540
     24 C           3.7767   -4.3157   -1.4594 C.ar    1  UNL1       -0.0236
     25 S           3.0239   -2.6543   -1.2933 S.2     1  UNL1       -0.0934
     26 C          -4.8445    0.3534    2.0495 C.3     1  UNL1        0.0966
     27 C          -6.2474    0.6903    2.3164 C.2     1  UNL1        0.3189
     28 O          -7.1631   -0.1056    2.0019 O.2     1  UNL1       -0.2496
     29 O          -6.5944    1.8841    2.9169 O.3     1  UNL1       -0.4797
     30 H          -6.3175   -1.1134    0.0725 H       1  UNL1        0.0391
     31 H          -4.6829   -1.6800   -0.5241 H       1  UNL1        0.0391
     32 H          -5.0624    0.0901   -0.3802 H       1  UNL1        0.0391
     33 H          -2.9126   -1.6315    2.3205 H       1  UNL1        0.0460
     34 H          -3.2453   -2.1935    0.6687 H       1  UNL1        0.0460
     35 H          -2.7997   -0.0531   -0.3162 H       1  UNL1        0.0709
     36 H          -2.4362    0.7019    1.3292 H       1  UNL1        0.0709
     37 H          -1.2388    1.6948   -0.3388 H       1  UNL1        0.0654
     38 H           0.7206    2.9138   -1.2004 H       1  UNL1        0.0625
     39 H           2.0797    3.1599   -2.7698 H       1  UNL1        0.0624
     40 H           3.9630    4.4613   -3.6508 H       1  UNL1        0.0632
     41 H           6.5137    2.7091   -0.8035 H       1  UNL1        0.0632
     42 H           4.6652    1.3813    0.1197 H       1  UNL1        0.0624
     43 H           3.2651   -0.2981   -0.1462 H       1  UNL1        0.0632
     44 H           2.0952   -4.7293    1.4494 H       1  UNL1        0.0630
     45 H           3.5872   -6.0171   -0.1140 H       1  UNL1        0.0623
     46 H           4.4236   -4.6467   -2.2769 H       1  UNL1        0.0693
     47 H          -4.4408    1.1329    1.3493 H       1  UNL1        0.0541
     48 H          -4.2322    0.2912    2.9828 H       1  UNL1        0.0541
     49 H          -7.5661    2.1761    2.9836 H       1  UNL1        0.2951
@<TRIPOS>BOND
     1     1     2    1
     2     2     3    1
     3     3     4    1
     4     4     5    1
     5     5     6    1
     6     6     7   ar
     7     7     8   ar
     8     8     9   ar
     9     9    10    1
    10    10    11   ar
    11    11    12   ar
    12    12    13   ar
    13    13    14    1
    14    13    15   ar
    15    15    16   ar
    16     9    17   ar
    17    17    18   ar
    18    18    19    1
    19    19    20    2
    20    19    21    1
    21    21    22   ar
    22    22    23   ar
    23    23    24   ar
    24    24    25   ar
    25     2    26    1
    26    26    27    1
    27    27    28    2
    28    27    29    1
    29    18     6   ar
    30    25    21   ar
    31    16    10   ar
    32     1    30    1
    33     1    31    1
    34     1    32    1
    35     3    33    1
    36     3    34    1
    37     4    35    1
    38     4    36    1
    39     7    37    1
    40     8    38    1
    41    11    39    1
    42    12    40    1
    43    15    41    1
    44    16    42    1
    45    17    43    1
    46    22    44    1
    47    23    45    1
    48    24    46    1
    49    26    47    1
    50    26    48    1
    51    29    49    1
