@<TRIPOS>MOLECULE
*****
 33 35 0 0 0
SMALL
GASTEIGER

@<TRIPOS>ATOM
      1 O          -7.3918   -0.3721    1.0055 O.3     1  UNL1       -0.5066
      2 C          -6.0708   -0.3350    0.5227 C.ar    1  UNL1        0.1204
      3 C          -5.7563   -0.8032   -0.7357 C.ar    1  UNL1       -0.0193
      4 C          -4.4602   -0.7605   -1.1941 C.ar    1  UNL1       -0.0450
      5 C          -3.4438   -0.2519   -0.4147 C.ar    1  UNL1        0.0506
      6 C          -2.0675   -0.2349   -0.9695 C.ar    1  UNL1        0.1357
      7 N          -1.4617   -0.5150   -1.9031 N.ar    1  UNL1       -0.1410
      8 N          -0.1667   -0.3432   -2.0517 N.ar    1  UNL1       -0.1424
      9 C           0.5591    0.1123   -1.2738 C.ar    1  UNL1        0.1398
     10 C           1.9512    0.4955   -0.9576 C.3     1  UNL1        0.1395
     11 O           2.6637   -0.5589   -0.3476 O.3     1  UNL1       -0.4838
     12 C           3.9682   -0.3763    0.0120 C.ar    1  UNL1        0.1394
     13 C           4.5723    0.8458   -0.2292 C.ar    1  UNL1       -0.0171
     14 C           5.8920    1.0392    0.1315 C.ar    1  UNL1       -0.0398
     15 C           6.5795    0.0207    0.7205 C.ar    1  UNL1        0.0426
     16 CL          8.2447    0.2067    1.1963 Cl      1  UNL1       -0.0835
     17 C           5.9777   -1.2064    0.9642 C.ar    1  UNL1       -0.0215
     18 C           4.6777   -1.4157    0.6156 C.ar    1  UNL1        0.0839
     19 CL          3.9112   -2.9406    0.9124 Cl      1  UNL1       -0.0797
     20 S          -0.7047    0.4701    0.1308 S.2     1  UNL1       -0.0470
     21 C          -3.7592    0.2114    0.8323 C.ar    1  UNL1        0.1300
     22 O          -2.7897    0.7369    1.6728 O.3     1  UNL1       -0.5060
     23 C          -5.0573    0.1733    1.3029 C.ar    1  UNL1        0.0220
     24 H          -8.0996   -0.1365    0.3259 H       1  UNL1        0.2921
     25 H          -6.5707   -1.1966   -1.3264 H       1  UNL1        0.0654
     26 H          -4.2611   -1.1429   -2.1969 H       1  UNL1        0.0627
     27 H           2.4202    0.8409   -1.8982 H       1  UNL1        0.0769
     28 H           2.0044    1.3582   -0.2539 H       1  UNL1        0.0769
     29 H           4.0320    1.6660   -0.6991 H       1  UNL1        0.0655
     30 H           6.3502    2.0083   -0.0666 H       1  UNL1        0.0633
     31 H           6.5171   -2.0175    1.4306 H       1  UNL1        0.0648
     32 H          -2.9828    1.3511    2.4448 H       1  UNL1        0.2922
     33 H          -5.2775    0.5485    2.2974 H       1  UNL1        0.0691
@<TRIPOS>BOND
     1     1     2    1
     2     2     3   ar
     3     3     4   ar
     4     4     5   ar
     5     5     6    1
     6     6     7   ar
     7     7     8   ar
     8     8     9   ar
     9     9    10    1
    10    10    11    1
    11    11    12    1
    12    12    13   ar
    13    13    14   ar
    14    14    15   ar
    15    15    16    1
    16    15    17   ar
    17    17    18   ar
    18    18    19    1
    19     9    20   ar
    20     5    21   ar
    21    21    22    1
    22    21    23   ar
    23    23     2   ar
    24    20     6   ar
    25    18    12   ar
    26     1    24    1
    27     3    25    1
    28     4    26    1
    29    10    27    1
    30    10    28    1
    31    13    29    1
    32    14    30    1
    33    17    31    1
    34    22    32    1
    35    23    33    1
