
     RDKit          3D

 33 35  0  0  0  0  0  0  0  0999 V2000
   -7.3918   -0.3721    1.0055 O   0  0  0  0  0  0  0  0  0  0  0  0
   -6.0708   -0.3350    0.5227 C   0  0  0  0  0  0  0  0  0  0  0  0
   -5.7563   -0.8032   -0.7357 C   0  0  0  0  0  0  0  0  0  0  0  0
   -4.4602   -0.7605   -1.1941 C   0  0  0  0  0  0  0  0  0  0  0  0
   -3.4438   -0.2519   -0.4147 C   0  0  0  0  0  0  0  0  0  0  0  0
   -2.0675   -0.2349   -0.9695 C   0  0  0  0  0  0  0  0  0  0  0  0
   -1.4617   -0.5150   -1.9031 N   0  0  0  0  0  0  0  0  0  0  0  0
   -0.1667   -0.3432   -2.0517 N   0  0  0  0  0  0  0  0  0  0  0  0
    0.5591    0.1123   -1.2738 C   0  0  0  0  0  0  0  0  0  0  0  0
    1.9512    0.4955   -0.9576 C   0  0  0  0  0  0  0  0  0  0  0  0
    2.6637   -0.5589   -0.3476 O   0  0  0  0  0  0  0  0  0  0  0  0
    3.9682   -0.3763    0.0120 C   0  0  0  0  0  0  0  0  0  0  0  0
    4.5723    0.8458   -0.2292 C   0  0  0  0  0  0  0  0  0  0  0  0
    5.8920    1.0392    0.1315 C   0  0  0  0  0  0  0  0  0  0  0  0
    6.5795    0.0207    0.7205 C   0  0  0  0  0  0  0  0  0  0  0  0
    8.2447    0.2067    1.1963 Cl  0  0  0  0  0  0  0  0  0  0  0  0
    5.9777   -1.2064    0.9642 C   0  0  0  0  0  0  0  0  0  0  0  0
    4.6777   -1.4157    0.6156 C   0  0  0  0  0  0  0  0  0  0  0  0
    3.9112   -2.9406    0.9124 Cl  0  0  0  0  0  0  0  0  0  0  0  0
   -0.7047    0.4701    0.1308 S   0  0  0  0  0  0  0  0  0  0  0  0
   -3.7592    0.2114    0.8323 C   0  0  0  0  0  0  0  0  0  0  0  0
   -2.7897    0.7369    1.6728 O   0  0  0  0  0  0  0  0  0  0  0  0
   -5.0573    0.1733    1.3029 C   0  0  0  0  0  0  0  0  0  0  0  0
   -8.0996   -0.1365    0.3259 H   0  0  0  0  0  0  0  0  0  0  0  0
   -6.5707   -1.1966   -1.3264 H   0  0  0  0  0  0  0  0  0  0  0  0
   -4.2611   -1.1429   -2.1969 H   0  0  0  0  0  0  0  0  0  0  0  0
    2.4202    0.8409   -1.8982 H   0  0  0  0  0  0  0  0  0  0  0  0
    2.0044    1.3582   -0.2539 H   0  0  0  0  0  0  0  0  0  0  0  0
    4.0320    1.6660   -0.6991 H   0  0  0  0  0  0  0  0  0  0  0  0
    6.3502    2.0083   -0.0666 H   0  0  0  0  0  0  0  0  0  0  0  0
    6.5171   -2.0175    1.4306 H   0  0  0  0  0  0  0  0  0  0  0  0
   -2.9828    1.3511    2.4448 H   0  0  0  0  0  0  0  0  0  0  0  0
   -5.2775    0.5485    2.2974 H   0  0  0  0  0  0  0  0  0  0  0  0
  1  2  1  0
  2  3  2  0
  3  4  1  0
  4  5  2  0
  5  6  1  0
  6  7  2  0
  7  8  1  0
  8  9  2  0
  9 10  1  0
 10 11  1  0
 11 12  1  0
 12 13  2  0
 13 14  1  0
 14 15  2  0
 15 16  1  0
 15 17  1  0
 17 18  2  0
 18 19  1  0
  9 20  1  0
  5 21  1  0
 21 22  1  0
 21 23  2  0
 23  2  1  0
 20  6  1  0
 18 12  1  0
  1 24  1  0
  3 25  1  0
  4 26  1  0
 10 27  1  0
 10 28  1  0
 13 29  1  0
 14 30  1  0
 17 31  1  0
 22 32  1  0
 23 33  1  0
M  END
$$$$
