@<TRIPOS>MOLECULE
*****
 62 62 0 0 0
SMALL
GASTEIGER

@<TRIPOS>ATOM
      1 C           7.2800    1.3516    2.6836 C.3     1  UNL1       -0.0653
      2 C           5.9493    1.0693    1.9914 C.3     1  UNL1       -0.0559
      3 C           6.1031    1.0764    0.4943 C.3     1  UNL1       -0.0533
      4 C           4.7871    0.7988   -0.2271 C.3     1  UNL1       -0.0530
      5 C           3.7492    1.8118    0.0972 C.3     1  UNL1       -0.0519
      6 C           2.4673    1.5483   -0.6244 C.3     1  UNL1       -0.0402
      7 C           1.9033    0.2209   -0.2404 C.3     1  UNL1       -0.0011
      8 N           0.6797   -0.0872   -0.8817 N.3     1  UNL1       -0.3026
      9 C           0.6642   -0.3288   -2.2621 C.3     1  UNL1       -0.0039
     10 C           1.3398   -1.5654   -2.7566 C.3     1  UNL1       -0.0524
     11 C          -0.3341   -0.7225   -0.0770 C.3     1  UNL1       -0.0010
     12 C          -0.0020   -2.0945    0.3424 C.3     1  UNL1       -0.0376
     13 C          -0.9965   -2.7776    1.2017 C.3     1  UNL1       -0.0215
     14 C          -2.3659   -3.0761    0.6864 C.3     1  UNL1        0.0802
     15 O          -3.0736   -3.7579    1.7416 O.3     1  UNL1       -0.3872
     16 C          -3.1374   -1.8726    0.3336 C.ar    1  UNL1       -0.0190
     17 C          -3.3829   -0.8712    1.2756 C.ar    1  UNL1       -0.0543
     18 C          -4.1578    0.2155    0.9384 C.ar    1  UNL1       -0.0390
     19 C          -4.7160    0.3709   -0.3061 C.ar    1  UNL1        0.0477
     20 N          -5.5251    1.4135   -0.8030 N.pl3   1  UNL1       -0.2209
     21 S          -6.8643    2.0987    0.0548 S.O2    1  UNL1        0.0403
     22 C          -6.3315    2.8363    1.5776 C.3     1  UNL1        0.0736
     23 O          -7.8404    0.9910    0.4166 O.2     1  UNL1       -0.1555
     24 O          -7.5383    3.1434   -0.7664 O.2     1  UNL1       -0.1555
     25 C          -4.4596   -0.6424   -1.2384 C.ar    1  UNL1       -0.0390
     26 C          -3.6865   -1.7621   -0.9585 C.ar    1  UNL1       -0.0543
     27 H           7.6045    2.3642    2.4133 H       1  UNL1        0.0230
     28 H           7.0905    1.2384    3.7749 H       1  UNL1        0.0230
     29 H           7.9888    0.5618    2.3513 H       1  UNL1        0.0230
     30 H           5.2057    1.8074    2.3322 H       1  UNL1        0.0263
     31 H           5.6331    0.0668    2.3456 H       1  UNL1        0.0263
     32 H           6.5625    2.0184    0.1401 H       1  UNL1        0.0265
     33 H           6.7760    0.2408    0.2138 H       1  UNL1        0.0265
     34 H           4.5190   -0.2271    0.0083 H       1  UNL1        0.0265
     35 H           5.0447    0.8267   -1.3077 H       1  UNL1        0.0265
     36 H           3.5069    1.7067    1.1965 H       1  UNL1        0.0266
     37 H           4.1048    2.8587   -0.0135 H       1  UNL1        0.0266
     38 H           2.6163    1.5869   -1.7268 H       1  UNL1        0.0278
     39 H           1.7705    2.3898   -0.4077 H       1  UNL1        0.0278
     40 H           1.6663    0.3050    0.8641 H       1  UNL1        0.0426
     41 H           2.6263   -0.6153   -0.2863 H       1  UNL1        0.0426
     42 H          -0.4096   -0.4138   -2.5841 H       1  UNL1        0.0424
     43 H           1.0431    0.5370   -2.8722 H       1  UNL1        0.0424
     44 H           0.6202   -2.4227   -2.8849 H       1  UNL1        0.0242
     45 H           2.2258   -1.8617   -2.1653 H       1  UNL1        0.0242
     46 H           1.7189   -1.3888   -3.7846 H       1  UNL1        0.0242
     47 H          -0.4021   -0.0909    0.8568 H       1  UNL1        0.0426
     48 H          -1.2596   -0.6300   -0.6251 H       1  UNL1        0.0426
     49 H           1.0020   -2.1560    0.8510 H       1  UNL1        0.0278
     50 H           0.1364   -2.7448   -0.5688 H       1  UNL1        0.0278
     51 H          -0.5562   -3.7471    1.6191 H       1  UNL1        0.0294
     52 H          -1.1401   -2.1862    2.1833 H       1  UNL1        0.0294
     53 H          -2.2953   -3.7408   -0.1907 H       1  UNL1        0.0643
     54 H          -4.0464   -3.5293    1.5994 H       1  UNL1        0.2102
     55 H          -2.9660   -0.9487    2.2663 H       1  UNL1        0.0622
     56 H          -4.3779    1.0134    1.6215 H       1  UNL1        0.0637
     57 H          -5.3012    1.8045   -1.7616 H       1  UNL1        0.1733
     58 H          -5.3942    3.4085    1.4773 H       1  UNL1        0.0482
     59 H          -7.1223    3.5993    1.8321 H       1  UNL1        0.0482
     60 H          -6.3392    2.1224    2.4281 H       1  UNL1        0.0482
     61 H          -4.8555   -0.6188   -2.2599 H       1  UNL1        0.0637
     62 H          -3.5080   -2.5226   -1.6938 H       1  UNL1        0.0622
@<TRIPOS>BOND
     1     1     2    1
     2     2     3    1
     3     3     4    1
     4     4     5    1
     5     5     6    1
     6     6     7    1
     7     7     8    1
     8     8     9    1
     9     9    10    1
    10     8    11    1
    11    11    12    1
    12    12    13    1
    13    13    14    1
    14    14    15    1
    15    14    16    1
    16    16    17   ar
    17    17    18   ar
    18    18    19   ar
    19    19    20    1
    20    20    21    1
    21    21    22    1
    22    21    23    2
    23    21    24    2
    24    19    25   ar
    25    25    26   ar
    26    26    16   ar
    27     1    27    1
    28     1    28    1
    29     1    29    1
    30     2    30    1
    31     2    31    1
    32     3    32    1
    33     3    33    1
    34     4    34    1
    35     4    35    1
    36     5    36    1
    37     5    37    1
    38     6    38    1
    39     6    39    1
    40     7    40    1
    41     7    41    1
    42     9    42    1
    43     9    43    1
    44    10    44    1
    45    10    45    1
    46    10    46    1
    47    11    47    1
    48    11    48    1
    49    12    49    1
    50    12    50    1
    51    13    51    1
    52    13    52    1
    53    14    53    1
    54    15    54    1
    55    17    55    1
    56    18    56    1
    57    20    57    1
    58    22    58    1
    59    22    59    1
    60    22    60    1
    61    25    61    1
    62    26    62    1
