
     RDKit          3D

 62 62  0  0  0  0  0  0  0  0999 V2000
    7.2800    1.3516    2.6836 C   0  0  0  0  0  0  0  0  0  0  0  0
    5.9493    1.0693    1.9914 C   0  0  0  0  0  0  0  0  0  0  0  0
    6.1031    1.0764    0.4943 C   0  0  0  0  0  0  0  0  0  0  0  0
    4.7871    0.7988   -0.2271 C   0  0  0  0  0  0  0  0  0  0  0  0
    3.7492    1.8118    0.0972 C   0  0  0  0  0  0  0  0  0  0  0  0
    2.4673    1.5483   -0.6244 C   0  0  0  0  0  0  0  0  0  0  0  0
    1.9033    0.2209   -0.2404 C   0  0  0  0  0  0  0  0  0  0  0  0
    0.6797   -0.0872   -0.8817 N   0  0  0  0  0  0  0  0  0  0  0  0
    0.6642   -0.3288   -2.2621 C   0  0  0  0  0  0  0  0  0  0  0  0
    1.3398   -1.5654   -2.7566 C   0  0  0  0  0  0  0  0  0  0  0  0
   -0.3341   -0.7225   -0.0770 C   0  0  0  0  0  0  0  0  0  0  0  0
   -0.0020   -2.0945    0.3424 C   0  0  0  0  0  0  0  0  0  0  0  0
   -0.9965   -2.7776    1.2017 C   0  0  0  0  0  0  0  0  0  0  0  0
   -2.3659   -3.0761    0.6864 C   0  0  0  0  0  0  0  0  0  0  0  0
   -3.0736   -3.7579    1.7416 O   0  0  0  0  0  0  0  0  0  0  0  0
   -3.1374   -1.8726    0.3336 C   0  0  0  0  0  0  0  0  0  0  0  0
   -3.3829   -0.8712    1.2756 C   0  0  0  0  0  0  0  0  0  0  0  0
   -4.1578    0.2155    0.9384 C   0  0  0  0  0  0  0  0  0  0  0  0
   -4.7160    0.3709   -0.3061 C   0  0  0  0  0  0  0  0  0  0  0  0
   -5.5251    1.4135   -0.8030 N   0  0  0  0  0  0  0  0  0  0  0  0
   -6.8643    2.0987    0.0548 S   0  0  0  0  0  0  0  0  0  0  0  0
   -6.3315    2.8363    1.5776 C   0  0  0  0  0  0  0  0  0  0  0  0
   -7.8404    0.9910    0.4166 O   0  0  0  0  0  0  0  0  0  0  0  0
   -7.5383    3.1434   -0.7664 O   0  0  0  0  0  0  0  0  0  0  0  0
   -4.4596   -0.6424   -1.2384 C   0  0  0  0  0  0  0  0  0  0  0  0
   -3.6865   -1.7621   -0.9585 C   0  0  0  0  0  0  0  0  0  0  0  0
    7.6045    2.3642    2.4133 H   0  0  0  0  0  0  0  0  0  0  0  0
    7.0905    1.2384    3.7749 H   0  0  0  0  0  0  0  0  0  0  0  0
    7.9888    0.5618    2.3513 H   0  0  0  0  0  0  0  0  0  0  0  0
    5.2057    1.8074    2.3322 H   0  0  0  0  0  0  0  0  0  0  0  0
    5.6331    0.0668    2.3456 H   0  0  0  0  0  0  0  0  0  0  0  0
    6.5625    2.0184    0.1401 H   0  0  0  0  0  0  0  0  0  0  0  0
    6.7760    0.2408    0.2138 H   0  0  0  0  0  0  0  0  0  0  0  0
    4.5190   -0.2271    0.0083 H   0  0  0  0  0  0  0  0  0  0  0  0
    5.0447    0.8267   -1.3077 H   0  0  0  0  0  0  0  0  0  0  0  0
    3.5069    1.7067    1.1965 H   0  0  0  0  0  0  0  0  0  0  0  0
    4.1048    2.8587   -0.0135 H   0  0  0  0  0  0  0  0  0  0  0  0
    2.6163    1.5869   -1.7268 H   0  0  0  0  0  0  0  0  0  0  0  0
    1.7705    2.3898   -0.4077 H   0  0  0  0  0  0  0  0  0  0  0  0
    1.6663    0.3050    0.8641 H   0  0  0  0  0  0  0  0  0  0  0  0
    2.6263   -0.6153   -0.2863 H   0  0  0  0  0  0  0  0  0  0  0  0
   -0.4096   -0.4138   -2.5841 H   0  0  0  0  0  0  0  0  0  0  0  0
    1.0431    0.5370   -2.8722 H   0  0  0  0  0  0  0  0  0  0  0  0
    0.6202   -2.4227   -2.8849 H   0  0  0  0  0  0  0  0  0  0  0  0
    2.2258   -1.8617   -2.1653 H   0  0  0  0  0  0  0  0  0  0  0  0
    1.7189   -1.3888   -3.7846 H   0  0  0  0  0  0  0  0  0  0  0  0
   -0.4021   -0.0909    0.8568 H   0  0  0  0  0  0  0  0  0  0  0  0
   -1.2596   -0.6300   -0.6251 H   0  0  0  0  0  0  0  0  0  0  0  0
    1.0020   -2.1560    0.8510 H   0  0  0  0  0  0  0  0  0  0  0  0
    0.1364   -2.7448   -0.5688 H   0  0  0  0  0  0  0  0  0  0  0  0
   -0.5562   -3.7471    1.6191 H   0  0  0  0  0  0  0  0  0  0  0  0
   -1.1401   -2.1862    2.1833 H   0  0  0  0  0  0  0  0  0  0  0  0
   -2.2953   -3.7408   -0.1907 H   0  0  0  0  0  0  0  0  0  0  0  0
   -4.0464   -3.5293    1.5994 H   0  0  0  0  0  0  0  0  0  0  0  0
   -2.9660   -0.9487    2.2663 H   0  0  0  0  0  0  0  0  0  0  0  0
   -4.3779    1.0134    1.6215 H   0  0  0  0  0  0  0  0  0  0  0  0
   -5.3012    1.8045   -1.7616 H   0  0  0  0  0  0  0  0  0  0  0  0
   -5.3942    3.4085    1.4773 H   0  0  0  0  0  0  0  0  0  0  0  0
   -7.1223    3.5993    1.8321 H   0  0  0  0  0  0  0  0  0  0  0  0
   -6.3392    2.1224    2.4281 H   0  0  0  0  0  0  0  0  0  0  0  0
   -4.8555   -0.6188   -2.2599 H   0  0  0  0  0  0  0  0  0  0  0  0
   -3.5080   -2.5226   -1.6938 H   0  0  0  0  0  0  0  0  0  0  0  0
  1  2  1  0
  2  3  1  0
  3  4  1  0
  4  5  1  0
  5  6  1  0
  6  7  1  0
  7  8  1  0
  8  9  1  0
  9 10  1  0
  8 11  1  0
 11 12  1  0
 12 13  1  0
 13 14  1  0
 14 15  1  0
 14 16  1  0
 16 17  2  0
 17 18  1  0
 18 19  2  0
 19 20  1  0
 20 21  1  0
 21 22  1  0
 21 23  2  0
 21 24  2  0
 19 25  1  0
 25 26  2  0
 26 16  1  0
  1 27  1  0
  1 28  1  0
  1 29  1  0
  2 30  1  0
  2 31  1  0
  3 32  1  0
  3 33  1  0
  4 34  1  0
  4 35  1  0
  5 36  1  0
  5 37  1  0
  6 38  1  0
  6 39  1  0
  7 40  1  0
  7 41  1  0
  9 42  1  0
  9 43  1  0
 10 44  1  0
 10 45  1  0
 10 46  1  0
 11 47  1  0
 11 48  1  0
 12 49  1  0
 12 50  1  0
 13 51  1  0
 13 52  1  0
 14 53  1  0
 15 54  1  0
 17 55  1  0
 18 56  1  0
 20 57  1  0
 22 58  1  0
 22 59  1  0
 22 60  1  0
 25 61  1  0
 26 62  1  0
M  END
$$$$
