@<TRIPOS>MOLECULE
*****
 70 74 0 0 0
SMALL
GASTEIGER

@<TRIPOS>ATOM
      1 C          -0.3843    2.3267   -0.3363 C.3     1  UNL1       -0.0586
      2 C           0.0314    1.1423   -1.1458 C.3     1  UNL1       -0.0186
      3 C          -0.5892    0.9882   -2.5001 C.3     1  UNL1       -0.0586
      4 C           0.2518   -0.1072   -0.3906 C.ar    1  UNL1       -0.0023
      5 C           1.5031   -0.6456   -0.0277 C.ar    1  UNL1        0.0621
      6 C           2.8169   -0.0706   -0.2996 C.ar    1  UNL1        0.2518
      7 N           3.2139    1.0425   -0.9072 N.ar    1  UNL1       -0.1058
      8 N           4.5264    1.1345   -0.9093 N.ar    1  UNL1       -0.0924
      9 C           4.9886    0.0474   -0.2837 C.ar    1  UNL1        0.3081
     10 N           6.3740   -0.2935   -0.0419 N.pl3   1  UNL1       -0.2975
     11 C           6.6826   -1.5029    0.6592 C.3     1  UNL1        0.0144
     12 C           8.1169   -1.8216    0.8614 C.3     1  UNL1       -0.0245
     13 C           8.9032   -0.8281    1.6343 C.3     1  UNL1       -0.0003
     14 N           9.0255    0.4740    1.0647 N.3     1  UNL1       -0.3083
     15 C           9.8727    0.4749   -0.1238 C.3     1  UNL1       -0.0130
     16 C           9.4727    1.4546    2.0197 C.3     1  UNL1       -0.0130
     17 O           3.9472   -0.6565    0.0709 O.2     1  UNL1       -0.4048
     18 C           1.2734   -1.8224    0.6405 C.ar    1  UNL1        0.0425
     19 N          -0.0399   -2.0541    0.7198 N.ar    1  UNL1       -0.2341
     20 N          -0.7110   -3.0652    1.2644 N.ar    1  UNL1       -0.1548
     21 C          -2.0422   -3.0931    1.2178 C.ar    1  UNL1        0.1388
     22 N          -2.6689   -2.1114    0.6304 N.ar    1  UNL1       -0.2167
     23 C          -2.0452   -1.0335    0.0465 C.ar    1  UNL1        0.1507
     24 N          -2.8223   -0.0341   -0.5393 N.pl3   1  UNL1       -0.2954
     25 C          -4.2148   -0.3206   -0.7583 C.ar    1  UNL1        0.0690
     26 C          -5.2308    0.3866   -0.2154 C.ar    1  UNL1       -0.0228
     27 C          -6.5719    0.0289   -0.4916 C.ar    1  UNL1        0.0737
     28 C          -7.5997    0.8514    0.1129 C.2     1  UNL1        0.2471
     29 O          -7.2818    1.7054    1.0197 O.2     1  UNL1       -0.2701
     30 N          -8.9799    0.8317   -0.1879 N.am    1  UNL1       -0.3084
     31 C          -9.9456    1.6931    0.4729 C.3     1  UNL1        0.0235
     32 C         -11.1992    0.9287    0.9859 C.3     1  UNL1       -0.0328
     33 C         -11.2806    1.9110   -0.1214 C.3     1  UNL1       -0.0328
     34 C          -6.8416   -1.0262   -1.3024 C.ar    1  UNL1        0.1383
     35 F          -8.1041   -1.3977   -1.5729 F       1  UNL1       -0.2046
     36 C          -5.7924   -1.7612   -1.8670 C.ar    1  UNL1        0.0114
     37 C          -4.4838   -1.3924   -1.5825 C.ar    1  UNL1        0.1472
     38 F          -3.5156   -2.1451   -2.1606 F       1  UNL1       -0.2035
     39 C          -0.6683   -1.0211    0.1005 C.ar    1  UNL1        0.1095
     40 H          -0.9942    3.0068   -1.0021 H       1  UNL1        0.0235
     41 H          -0.9751    2.0567    0.5689 H       1  UNL1        0.0235
     42 H           0.4446    2.9563    0.0442 H       1  UNL1        0.0235
     43 H           1.1173    1.4475   -1.4476 H       1  UNL1        0.0344
     44 H          -1.0126   -0.0150   -2.6272 H       1  UNL1        0.0235
     45 H          -1.4129    1.7342   -2.7014 H       1  UNL1        0.0235
     46 H           0.1096    1.1247   -3.3553 H       1  UNL1        0.0235
     47 H           7.0901    0.3573   -0.3901 H       1  UNL1        0.1504
     48 H           6.2091   -1.5048    1.6949 H       1  UNL1        0.0463
     49 H           6.1429   -2.3743    0.1667 H       1  UNL1        0.0463
     50 H           8.1606   -2.7940    1.4442 H       1  UNL1        0.0293
     51 H           8.6290   -2.1101   -0.1093 H       1  UNL1        0.0293
     52 H           9.9501   -1.2044    1.8365 H       1  UNL1        0.0427
     53 H           8.3973   -0.7283    2.6388 H       1  UNL1        0.0427
     54 H          10.7598    1.1028    0.0968 H       1  UNL1        0.0391
     55 H          10.1317   -0.5834   -0.3379 H       1  UNL1        0.0391
     56 H           9.3561    0.9553   -0.9913 H       1  UNL1        0.0391
     57 H           9.0162    2.4399    1.9191 H       1  UNL1        0.0391
     58 H          10.5884    1.5559    1.9052 H       1  UNL1        0.0391
     59 H           9.3143    1.0114    3.0362 H       1  UNL1        0.0391
     60 H           2.0583   -2.4719    1.0470 H       1  UNL1        0.0838
     61 H          -2.6068   -3.9167    1.6589 H       1  UNL1        0.1066
     62 H          -2.5443    0.8758   -0.8012 H       1  UNL1        0.1537
     63 H          -5.0147    1.2235    0.4283 H       1  UNL1        0.0645
     64 H          -9.3291    0.1863   -0.9150 H       1  UNL1        0.1493
     65 H          -9.5015    2.3613    1.2271 H       1  UNL1        0.0498
     66 H         -11.5908    1.2297    1.9747 H       1  UNL1        0.0284
     67 H         -11.2395   -0.1599    0.7821 H       1  UNL1        0.0284
     68 H         -11.7474    2.9003    0.0861 H       1  UNL1        0.0284
     69 H         -11.4540    1.4877   -1.1357 H       1  UNL1        0.0284
     70 H          -6.0394   -2.5808   -2.4977 H       1  UNL1        0.0676
@<TRIPOS>BOND
     1     1     2    1
     2     2     3    1
     3     2     4    1
     4     4     5   ar
     5     5     6    1
     6     6     7   ar
     7     7     8   ar
     8     8     9   ar
     9     9    10    1
    10    10    11    1
    11    11    12    1
    12    12    13    1
    13    13    14    1
    14    14    15    1
    15    14    16    1
    16     9    17   ar
    17     5    18   ar
    18    18    19   ar
    19    19    20   ar
    20    20    21   ar
    21    21    22   ar
    22    22    23   ar
    23    23    24    1
    24    24    25    1
    25    25    26   ar
    26    26    27   ar
    27    27    28    1
    28    28    29    2
    29    28    30   am
    30    30    31    1
    31    31    32    1
    32    32    33    1
    33    27    34   ar
    34    34    35    1
    35    34    36   ar
    36    36    37   ar
    37    37    38    1
    38    23    39   ar
    39    39     4   ar
    40    17     6   ar
    41    39    19   ar
    42    37    25   ar
    43    33    31    1
    44     1    40    1
    45     1    41    1
    46     1    42    1
    47     2    43    1
    48     3    44    1
    49     3    45    1
    50     3    46    1
    51    10    47    1
    52    11    48    1
    53    11    49    1
    54    12    50    1
    55    12    51    1
    56    13    52    1
    57    13    53    1
    58    15    54    1
    59    15    55    1
    60    15    56    1
    61    16    57    1
    62    16    58    1
    63    16    59    1
    64    18    60    1
    65    21    61    1
    66    24    62    1
    67    26    63    1
    68    30    64    1
    69    31    65    1
    70    32    66    1
    71    32    67    1
    72    33    68    1
    73    33    69    1
    74    36    70    1
