@<TRIPOS>MOLECULE
*****
 61 65 0 0 0
SMALL
GASTEIGER

@<TRIPOS>ATOM
      1 C           6.2952    3.7879   -0.3498 C.3     1  UNL1        0.0309
      2 N           5.6345    2.5109   -0.1717 N.ar    1  UNL1       -0.2650
      3 N           4.5602    2.1820    0.5044 N.ar    1  UNL1       -0.1554
      4 C           4.2635    0.8807    0.4119 C.ar    1  UNL1        0.1488
      5 N           3.1379    0.1855    0.9949 N.pl3   1  UNL1       -0.3186
      6 C           2.2769    0.9857    1.8475 C.3     1  UNL1        0.0870
      7 C           1.0368    0.3329    2.2638 C.2     1  UNL1        0.2305
      8 O           0.3511    0.9769    3.1470 O.2     1  UNL1       -0.2741
      9 N           0.5486   -0.8684    1.8009 N.am    1  UNL1       -0.3087
     10 C          -0.6571   -1.5803    2.1811 C.3     1  UNL1        0.0486
     11 C          -1.4781   -2.1116    1.0884 C.3     1  UNL1        0.0189
     12 N          -2.6595   -1.5047    1.5341 N.3     1  UNL1       -0.2958
     13 C          -3.3491   -0.6498    0.6365 C.3     1  UNL1        0.0106
     14 C          -3.8134   -1.1644   -0.6619 C.3     1  UNL1       -0.0367
     15 C          -4.3577   -0.0251   -1.5209 C.3     1  UNL1       -0.0429
     16 C          -5.2554    0.9124   -0.8529 C.3     1  UNL1        0.0078
     17 C          -6.6787    0.4422   -1.0510 C.ar    1  UNL1        0.0813
     18 N          -7.2447   -0.6755   -1.0544 N.ar    1  UNL1       -0.2520
     19 C          -8.5233   -0.8151   -1.2285 C.ar    1  UNL1        0.0350
     20 C          -9.3091    0.2576   -1.4153 C.ar    1  UNL1       -0.0045
     21 S          -8.0116    1.5882   -1.3217 S.2     1  UNL1       -0.0803
     22 C          -5.0175    1.1139    0.6252 C.3     1  UNL1       -0.0429
     23 C          -4.6433   -0.1303    1.3397 C.3     1  UNL1       -0.0367
     24 C          -1.8622   -0.6540    2.4369 C.3     1  UNL1        0.0189
     25 C           5.2299    0.3275   -0.3919 C.ar    1  UNL1        0.0419
     26 C           5.4903   -0.9510   -0.8378 C.ar    1  UNL1       -0.0376
     27 C           6.5794   -1.2416   -1.6346 C.ar    1  UNL1        0.0556
     28 C           6.8964   -2.6286   -2.1121 C.3     1  UNL1        0.4174
     29 F           7.6548   -2.5878   -3.2532 F       1  UNL1       -0.1659
     30 F           7.6500   -3.2855   -1.1317 F       1  UNL1       -0.1659
     31 F           5.7178   -3.3200   -2.3293 F       1  UNL1       -0.1659
     32 C           7.4151   -0.2127   -1.9855 C.ar    1  UNL1       -0.0481
     33 C           7.1827    1.1008   -1.5526 C.ar    1  UNL1       -0.0355
     34 C           6.0825    1.3538   -0.7528 C.ar    1  UNL1        0.0705
     35 H           6.1024    4.4422    0.5368 H       1  UNL1        0.0473
     36 H           7.3577    3.6805   -0.5911 H       1  UNL1        0.0473
     37 H           5.8314    4.3771   -1.2033 H       1  UNL1        0.0473
     38 H           3.0184   -0.8087    0.7815 H       1  UNL1        0.1480
     39 H           2.0225    1.8784    1.1680 H       1  UNL1        0.0557
     40 H           2.8886    1.4279    2.6562 H       1  UNL1        0.0557
     41 H           1.1383   -1.3580    1.0433 H       1  UNL1        0.1491
     42 H          -0.5342   -2.1347    3.1084 H       1  UNL1        0.0523
     43 H          -1.1466   -1.8579    0.0390 H       1  UNL1        0.0445
     44 H          -1.5007   -3.2475    1.0922 H       1  UNL1        0.0445
     45 H          -2.7552    0.2839    0.4664 H       1  UNL1        0.0462
     46 H          -2.9566   -1.6680   -1.1786 H       1  UNL1        0.0280
     47 H          -4.6154   -1.9501   -0.5829 H       1  UNL1        0.0280
     48 H          -4.7707   -0.5060   -2.4272 H       1  UNL1        0.0272
     49 H          -3.4254    0.5095   -1.8724 H       1  UNL1        0.0272
     50 H          -5.2168    1.9177   -1.3113 H       1  UNL1        0.0369
     51 H          -8.9917   -1.8424   -1.2254 H       1  UNL1        0.0835
     52 H         -10.3386    0.4749   -1.5810 H       1  UNL1        0.0709
     53 H          -4.2604    1.8992    0.8176 H       1  UNL1        0.0272
     54 H          -5.9770    1.4803    1.0738 H       1  UNL1        0.0272
     55 H          -4.4633    0.0629    2.3898 H       1  UNL1        0.0280
     56 H          -5.4332   -0.8827    1.1392 H       1  UNL1        0.0280
     57 H          -2.3207   -0.8022    3.4567 H       1  UNL1        0.0445
     58 H          -1.7099    0.3717    2.1167 H       1  UNL1        0.0445
     59 H           4.8314   -1.7863   -0.5763 H       1  UNL1        0.0631
     60 H           8.2629   -0.4059   -2.5989 H       1  UNL1        0.0624
     61 H           7.8199    1.9119   -1.8175 H       1  UNL1        0.0639
@<TRIPOS>BOND
     1     1     2    1
     2     2     3   ar
     3     3     4   ar
     4     4     5    1
     5     5     6    1
     6     6     7    1
     7     7     8    2
     8     7     9   am
     9     9    10    1
    10    10    11    1
    11    11    12    1
    12    12    13    1
    13    13    14    1
    14    14    15    1
    15    15    16    1
    16    16    17    1
    17    17    18   ar
    18    18    19   ar
    19    19    20   ar
    20    20    21   ar
    21    16    22    1
    22    22    23    1
    23    12    24    1
    24     4    25   ar
    25    25    26   ar
    26    26    27   ar
    27    27    28    1
    28    28    29    1
    29    28    30    1
    30    28    31    1
    31    27    32   ar
    32    32    33   ar
    33    33    34   ar
    34    34     2   ar
    35    24    10    1
    36    34    25   ar
    37    23    13    1
    38    21    17   ar
    39     1    35    1
    40     1    36    1
    41     1    37    1
    42     5    38    1
    43     6    39    1
    44     6    40    1
    45     9    41    1
    46    10    42    1
    47    11    43    1
    48    11    44    1
    49    13    45    1
    50    14    46    1
    51    14    47    1
    52    15    48    1
    53    15    49    1
    54    16    50    1
    55    19    51    1
    56    20    52    1
    57    22    53    1
    58    22    54    1
    59    23    55    1
    60    23    56    1
    61    24    57    1
    62    24    58    1
    63    26    59    1
    64    32    60    1
    65    33    61    1
