
     RDKit          3D

 61 65  0  0  0  0  0  0  0  0999 V2000
    6.2952    3.7879   -0.3498 C   0  0  0  0  0  0  0  0  0  0  0  0
    5.6345    2.5109   -0.1717 N   0  0  0  0  0  0  0  0  0  0  0  0
    4.5602    2.1820    0.5044 N   0  0  0  0  0  0  0  0  0  0  0  0
    4.2635    0.8807    0.4119 C   0  0  0  0  0  0  0  0  0  0  0  0
    3.1379    0.1855    0.9949 N   0  0  0  0  0  0  0  0  0  0  0  0
    2.2769    0.9857    1.8475 C   0  0  0  0  0  0  0  0  0  0  0  0
    1.0368    0.3329    2.2638 C   0  0  0  0  0  0  0  0  0  0  0  0
    0.3511    0.9769    3.1470 O   0  0  0  0  0  0  0  0  0  0  0  0
    0.5486   -0.8684    1.8009 N   0  0  0  0  0  0  0  0  0  0  0  0
   -0.6571   -1.5803    2.1811 C   0  0  0  0  0  0  0  0  0  0  0  0
   -1.4781   -2.1116    1.0884 C   0  0  0  0  0  0  0  0  0  0  0  0
   -2.6595   -1.5047    1.5341 N   0  0  0  0  0  0  0  0  0  0  0  0
   -3.3491   -0.6498    0.6365 C   0  0  1  0  0  0  0  0  0  0  0  0
   -3.8134   -1.1644   -0.6619 C   0  0  0  0  0  0  0  0  0  0  0  0
   -4.3577   -0.0251   -1.5209 C   0  0  0  0  0  0  0  0  0  0  0  0
   -5.2554    0.9124   -0.8529 C   0  0  1  0  0  0  0  0  0  0  0  0
   -6.6787    0.4422   -1.0510 C   0  0  0  0  0  0  0  0  0  0  0  0
   -7.2447   -0.6755   -1.0544 N   0  0  0  0  0  0  0  0  0  0  0  0
   -8.5233   -0.8151   -1.2285 C   0  0  0  0  0  0  0  0  0  0  0  0
   -9.3091    0.2576   -1.4153 C   0  0  0  0  0  0  0  0  0  0  0  0
   -8.0116    1.5882   -1.3217 S   0  0  0  0  0  0  0  0  0  0  0  0
   -5.0175    1.1139    0.6252 C   0  0  0  0  0  0  0  0  0  0  0  0
   -4.6433   -0.1303    1.3397 C   0  0  0  0  0  0  0  0  0  0  0  0
   -1.8622   -0.6540    2.4369 C   0  0  0  0  0  0  0  0  0  0  0  0
    5.2299    0.3275   -0.3919 C   0  0  0  0  0  0  0  0  0  0  0  0
    5.4903   -0.9510   -0.8378 C   0  0  0  0  0  0  0  0  0  0  0  0
    6.5794   -1.2416   -1.6346 C   0  0  0  0  0  0  0  0  0  0  0  0
    6.8964   -2.6286   -2.1121 C   0  0  0  0  0  0  0  0  0  0  0  0
    7.6548   -2.5878   -3.2532 F   0  0  0  0  0  0  0  0  0  0  0  0
    7.6500   -3.2855   -1.1317 F   0  0  0  0  0  0  0  0  0  0  0  0
    5.7178   -3.3200   -2.3293 F   0  0  0  0  0  0  0  0  0  0  0  0
    7.4151   -0.2127   -1.9855 C   0  0  0  0  0  0  0  0  0  0  0  0
    7.1827    1.1008   -1.5526 C   0  0  0  0  0  0  0  0  0  0  0  0
    6.0825    1.3538   -0.7528 C   0  0  0  0  0  0  0  0  0  0  0  0
    6.1024    4.4422    0.5368 H   0  0  0  0  0  0  0  0  0  0  0  0
    7.3577    3.6805   -0.5911 H   0  0  0  0  0  0  0  0  0  0  0  0
    5.8314    4.3771   -1.2033 H   0  0  0  0  0  0  0  0  0  0  0  0
    3.0184   -0.8087    0.7815 H   0  0  0  0  0  0  0  0  0  0  0  0
    2.0225    1.8784    1.1680 H   0  0  0  0  0  0  0  0  0  0  0  0
    2.8886    1.4279    2.6562 H   0  0  0  0  0  0  0  0  0  0  0  0
    1.1383   -1.3580    1.0433 H   0  0  0  0  0  0  0  0  0  0  0  0
   -0.5342   -2.1347    3.1084 H   0  0  0  0  0  0  0  0  0  0  0  0
   -1.1466   -1.8579    0.0390 H   0  0  0  0  0  0  0  0  0  0  0  0
   -1.5007   -3.2475    1.0922 H   0  0  0  0  0  0  0  0  0  0  0  0
   -2.7552    0.2839    0.4664 H   0  0  0  0  0  0  0  0  0  0  0  0
   -2.9566   -1.6680   -1.1786 H   0  0  0  0  0  0  0  0  0  0  0  0
   -4.6154   -1.9501   -0.5829 H   0  0  0  0  0  0  0  0  0  0  0  0
   -4.7707   -0.5060   -2.4272 H   0  0  0  0  0  0  0  0  0  0  0  0
   -3.4254    0.5095   -1.8724 H   0  0  0  0  0  0  0  0  0  0  0  0
   -5.2168    1.9177   -1.3113 H   0  0  0  0  0  0  0  0  0  0  0  0
   -8.9917   -1.8424   -1.2254 H   0  0  0  0  0  0  0  0  0  0  0  0
  -10.3386    0.4749   -1.5810 H   0  0  0  0  0  0  0  0  0  0  0  0
   -4.2604    1.8992    0.8176 H   0  0  0  0  0  0  0  0  0  0  0  0
   -5.9770    1.4803    1.0738 H   0  0  0  0  0  0  0  0  0  0  0  0
   -4.4633    0.0629    2.3898 H   0  0  0  0  0  0  0  0  0  0  0  0
   -5.4332   -0.8827    1.1392 H   0  0  0  0  0  0  0  0  0  0  0  0
   -2.3207   -0.8022    3.4567 H   0  0  0  0  0  0  0  0  0  0  0  0
   -1.7099    0.3717    2.1167 H   0  0  0  0  0  0  0  0  0  0  0  0
    4.8314   -1.7863   -0.5763 H   0  0  0  0  0  0  0  0  0  0  0  0
    8.2629   -0.4059   -2.5989 H   0  0  0  0  0  0  0  0  0  0  0  0
    7.8199    1.9119   -1.8175 H   0  0  0  0  0  0  0  0  0  0  0  0
  1  2  1  0
  2  3  1  0
  3  4  2  0
  4  5  1  0
  5  6  1  0
  6  7  1  0
  7  8  2  0
  7  9  1  0
  9 10  1  0
 10 11  1  0
 11 12  1  0
 12 13  1  0
 13 14  1  0
 14 15  1  0
 15 16  1  0
 16 17  1  0
 17 18  2  0
 18 19  1  0
 19 20  2  0
 20 21  1  0
 16 22  1  0
 22 23  1  0
 12 24  1  0
  4 25  1  0
 25 26  2  0
 26 27  1  0
 27 28  1  0
 28 29  1  0
 28 30  1  0
 28 31  1  0
 27 32  2  0
 32 33  1  0
 33 34  2  0
 34  2  1  0
 24 10  1  0
 34 25  1  0
 23 13  1  0
 21 17  1  0
  1 35  1  0
  1 36  1  0
  1 37  1  0
  5 38  1  0
  6 39  1  0
  6 40  1  0
  9 41  1  0
 10 42  1  0
 11 43  1  0
 11 44  1  0
 13 45  1  6
 14 46  1  0
 14 47  1  0
 15 48  1  0
 15 49  1  0
 16 50  1  6
 19 51  1  0
 20 52  1  0
 22 53  1  0
 22 54  1  0
 23 55  1  0
 23 56  1  0
 24 57  1  0
 24 58  1  0
 26 59  1  0
 32 60  1  0
 33 61  1  0
M  END
$$$$
