@<TRIPOS>MOLECULE
*****
 72 77 0 0 0
SMALL
GASTEIGER

@<TRIPOS>ATOM
      1 C          -3.2611    5.5445   -2.7011 C.3     1  UNL1       -0.0151
      2 N          -3.4886    6.0803   -1.3724 N.3     1  UNL1       -0.3089
      3 C          -4.2410    5.1655   -0.5219 C.3     1  UNL1        0.0820
      4 C          -5.5965    4.9566   -1.0836 C.3     1  UNL1       -0.0411
      5 C          -3.4763    3.8935   -0.3185 C.2     1  UNL1        0.2350
      6 O          -2.2580    3.7667   -0.6503 O.2     1  UNL1       -0.2737
      7 N          -4.1198    2.7618    0.2584 N.am    1  UNL1       -0.2691
      8 C          -3.3912    1.5468    0.4547 C.ar    1  UNL1        0.1263
      9 C          -4.0586    0.3961    0.8840 C.ar    1  UNL1       -0.0208
     10 C          -3.3042   -0.7493    1.0860 C.ar    1  UNL1       -0.0466
     11 C          -1.9545   -0.8270    0.8946 C.ar    1  UNL1        0.0349
     12 C          -1.2412   -2.0587    1.1377 C.ar    1  UNL1        0.0837
     13 C          -1.3537   -3.2418    0.4496 C.ar    1  UNL1        0.1007
     14 C          -2.1875   -3.6216   -0.6793 C.ar    1  UNL1        0.0399
     15 C          -3.5430   -3.7474   -0.6879 C.ar    1  UNL1        0.0586
     16 N          -3.9060   -4.1594   -1.9331 N.ar    1  UNL1       -0.1792
     17 N          -2.8256   -4.2936   -2.6876 N.ar    1  UNL1       -0.2738
     18 C          -2.8636   -4.7374   -4.0657 C.3     1  UNL1        0.0302
     19 C          -1.7406   -3.9638   -1.9267 C.ar    1  UNL1        0.0344
     20 N          -0.4805   -4.1226    1.0612 N.ar    1  UNL1       -0.2271
     21 C           0.1467   -3.5241    2.0812 C.ar    1  UNL1        0.1390
     22 C           1.0886   -3.9837    2.9710 C.ar    1  UNL1       -0.0158
     23 C           1.5824   -3.1491    3.9455 C.ar    1  UNL1       -0.0456
     24 C           2.5740   -3.6421    4.9074 C.3     1  UNL1       -0.0395
     25 C           1.1067   -1.8674    3.9869 C.ar    1  UNL1       -0.0421
     26 C           0.1461   -1.4274    3.0641 C.ar    1  UNL1        0.0120
     27 N          -0.3181   -2.2869    2.1159 N.ar    1  UNL1       -0.2986
     28 C          -1.3378    0.3406    0.4706 C.ar    1  UNL1        0.1250
     29 C           0.0989    0.3345    0.2788 C.1     1  UNL1       -0.0404
     30 C           1.2808    0.3479    0.1120 C.1     1  UNL1       -0.0595
     31 C           2.7081    0.3735   -0.1116 C.ar    1  UNL1        0.0259
     32 C           3.5767    0.3204    0.9960 C.ar    1  UNL1       -0.0457
     33 C           4.9404    0.4813    0.8171 C.ar    1  UNL1       -0.0512
     34 C           5.5105    0.6944   -0.4014 C.ar    1  UNL1        0.0032
     35 C           6.8564    0.8878   -0.5789 C.ar    1  UNL1        0.0459
     36 C           7.7900    0.8718    0.5825 C.3     1  UNL1       -0.0218
     37 N           7.3779    1.1196   -1.7861 N.ar    1  UNL1       -0.2595
     38 C           6.6155    1.1779   -2.9026 C.ar    1  UNL1        0.0285
     39 C           5.2509    0.9832   -2.7247 C.ar    1  UNL1       -0.0358
     40 C           4.6587    0.7424   -1.5131 C.ar    1  UNL1       -0.0136
     41 C           3.2959    0.5805   -1.3317 C.ar    1  UNL1       -0.0385
     42 N          -2.0801    1.4684    0.2704 N.ar    1  UNL1       -0.2229
     43 H          -4.0891    4.9949   -3.1348 H       1  UNL1        0.0388
     44 H          -2.3188    4.9441   -2.6590 H       1  UNL1        0.0388
     45 H          -3.0607    6.4147   -3.3790 H       1  UNL1        0.0388
     46 H          -2.5834    6.3624   -0.9689 H       1  UNL1        0.1223
     47 H          -4.3435    5.6792    0.4695 H       1  UNL1        0.0554
     48 H          -6.1580    4.2639   -0.3726 H       1  UNL1        0.0249
     49 H          -5.6399    4.4603   -2.0697 H       1  UNL1        0.0249
     50 H          -6.2023    5.9098   -1.0768 H       1  UNL1        0.0249
     51 H          -5.1000    2.8120    0.5268 H       1  UNL1        0.1563
     52 H          -5.1164    0.4357    1.0437 H       1  UNL1        0.0652
     53 H          -3.7983   -1.6580    1.4200 H       1  UNL1        0.0626
     54 H          -4.2547   -3.5764    0.0944 H       1  UNL1        0.0854
     55 H          -2.5149   -5.8233   -4.1336 H       1  UNL1        0.0473
     56 H          -2.1707   -4.1795   -4.7239 H       1  UNL1        0.0473
     57 H          -3.8997   -4.7620   -4.4324 H       1  UNL1        0.0473
     58 H          -0.7471   -4.0063   -2.3450 H       1  UNL1        0.0833
     59 H           1.4668   -5.0187    2.9177 H       1  UNL1        0.0657
     60 H           2.0451   -3.6992    5.8874 H       1  UNL1        0.0278
     61 H           3.4979   -3.0370    4.9612 H       1  UNL1        0.0278
     62 H           2.8867   -4.6861    4.6441 H       1  UNL1        0.0278
     63 H           1.4891   -1.1927    4.7557 H       1  UNL1        0.0635
     64 H          -0.2199   -0.4253    3.0904 H       1  UNL1        0.0813
     65 H           3.1811    0.1533    1.9714 H       1  UNL1        0.0630
     66 H           5.5732    0.4236    1.7199 H       1  UNL1        0.0625
     67 H           8.6613    1.5366    0.3740 H       1  UNL1        0.0293
     68 H           7.2758    1.3474    1.4460 H       1  UNL1        0.0293
     69 H           8.1944   -0.1165    0.7883 H       1  UNL1        0.0293
     70 H           7.0628    1.3710   -3.8432 H       1  UNL1        0.0830
     71 H           4.6249    1.0278   -3.6088 H       1  UNL1        0.0639
     72 H           2.6805    0.6118   -2.2104 H       1  UNL1        0.0636
@<TRIPOS>BOND
     1     1     2    1
     2     2     3    1
     3     3     4    1
     4     3     5    1
     5     5     6    2
     6     5     7   am
     7     7     8    1
     8     8     9   ar
     9     9    10   ar
    10    10    11   ar
    11    11    12    1
    12    12    13   ar
    13    13    14    1
    14    14    15   ar
    15    15    16   ar
    16    16    17   ar
    17    17    18    1
    18    17    19   ar
    19    13    20   ar
    20    20    21   ar
    21    21    22   ar
    22    22    23   ar
    23    23    24    1
    24    23    25   ar
    25    25    26   ar
    26    26    27   ar
    27    11    28   ar
    28    28    29    1
    29    29    30    3
    30    30    31    1
    31    31    32   ar
    32    32    33   ar
    33    33    34   ar
    34    34    35   ar
    35    35    36    1
    36    35    37   ar
    37    37    38   ar
    38    38    39   ar
    39    39    40   ar
    40    40    41   ar
    41    28    42   ar
    42    42     8   ar
    43    27    12   ar
    44    41    31   ar
    45    19    14   ar
    46    27    21   ar
    47    40    34   ar
    48     1    43    1
    49     1    44    1
    50     1    45    1
    51     2    46    1
    52     3    47    1
    53     4    48    1
    54     4    49    1
    55     4    50    1
    56     7    51    1
    57     9    52    1
    58    10    53    1
    59    15    54    1
    60    18    55    1
    61    18    56    1
    62    18    57    1
    63    19    58    1
    64    22    59    1
    65    24    60    1
    66    24    61    1
    67    24    62    1
    68    25    63    1
    69    26    64    1
    70    32    65    1
    71    33    66    1
    72    36    67    1
    73    36    68    1
    74    36    69    1
    75    38    70    1
    76    39    71    1
    77    41    72    1
