
     RDKit          3D

 72 77  0  0  0  0  0  0  0  0999 V2000
   -3.2611    5.5445   -2.7011 C   0  0  0  0  0  0  0  0  0  0  0  0
   -3.4886    6.0803   -1.3724 N   0  0  0  0  0  0  0  0  0  0  0  0
   -4.2410    5.1655   -0.5219 C   0  0  1  0  0  0  0  0  0  0  0  0
   -5.5965    4.9566   -1.0836 C   0  0  0  0  0  0  0  0  0  0  0  0
   -3.4763    3.8935   -0.3185 C   0  0  0  0  0  0  0  0  0  0  0  0
   -2.2580    3.7667   -0.6503 O   0  0  0  0  0  0  0  0  0  0  0  0
   -4.1198    2.7618    0.2584 N   0  0  0  0  0  0  0  0  0  0  0  0
   -3.3912    1.5468    0.4547 C   0  0  0  0  0  0  0  0  0  0  0  0
   -4.0586    0.3961    0.8840 C   0  0  0  0  0  0  0  0  0  0  0  0
   -3.3042   -0.7493    1.0860 C   0  0  0  0  0  0  0  0  0  0  0  0
   -1.9545   -0.8270    0.8946 C   0  0  0  0  0  0  0  0  0  0  0  0
   -1.2412   -2.0587    1.1377 C   0  0  0  0  0  0  0  0  0  0  0  0
   -1.3537   -3.2418    0.4496 C   0  0  0  0  0  0  0  0  0  0  0  0
   -2.1875   -3.6216   -0.6793 C   0  0  0  0  0  0  0  0  0  0  0  0
   -3.5430   -3.7474   -0.6879 C   0  0  0  0  0  0  0  0  0  0  0  0
   -3.9060   -4.1594   -1.9331 N   0  0  0  0  0  0  0  0  0  0  0  0
   -2.8256   -4.2936   -2.6876 N   0  0  0  0  0  0  0  0  0  0  0  0
   -2.8636   -4.7374   -4.0657 C   0  0  0  0  0  0  0  0  0  0  0  0
   -1.7406   -3.9638   -1.9267 C   0  0  0  0  0  0  0  0  0  0  0  0
   -0.4805   -4.1226    1.0612 N   0  0  0  0  0  0  0  0  0  0  0  0
    0.1467   -3.5241    2.0812 C   0  0  0  0  0  0  0  0  0  0  0  0
    1.0886   -3.9837    2.9710 C   0  0  0  0  0  0  0  0  0  0  0  0
    1.5824   -3.1491    3.9455 C   0  0  0  0  0  0  0  0  0  0  0  0
    2.5740   -3.6421    4.9074 C   0  0  0  0  0  0  0  0  0  0  0  0
    1.1067   -1.8674    3.9869 C   0  0  0  0  0  0  0  0  0  0  0  0
    0.1461   -1.4274    3.0641 C   0  0  0  0  0  0  0  0  0  0  0  0
   -0.3181   -2.2869    2.1159 N   0  0  0  0  0  0  0  0  0  0  0  0
   -1.3378    0.3406    0.4706 C   0  0  0  0  0  0  0  0  0  0  0  0
    0.0989    0.3345    0.2788 C   0  0  0  0  0  0  0  0  0  0  0  0
    1.2808    0.3479    0.1120 C   0  0  0  0  0  0  0  0  0  0  0  0
    2.7081    0.3735   -0.1116 C   0  0  0  0  0  0  0  0  0  0  0  0
    3.5767    0.3204    0.9960 C   0  0  0  0  0  0  0  0  0  0  0  0
    4.9404    0.4813    0.8171 C   0  0  0  0  0  0  0  0  0  0  0  0
    5.5105    0.6944   -0.4014 C   0  0  0  0  0  0  0  0  0  0  0  0
    6.8564    0.8878   -0.5789 C   0  0  0  0  0  0  0  0  0  0  0  0
    7.7900    0.8718    0.5825 C   0  0  0  0  0  0  0  0  0  0  0  0
    7.3779    1.1196   -1.7861 N   0  0  0  0  0  0  0  0  0  0  0  0
    6.6155    1.1779   -2.9026 C   0  0  0  0  0  0  0  0  0  0  0  0
    5.2509    0.9832   -2.7247 C   0  0  0  0  0  0  0  0  0  0  0  0
    4.6587    0.7424   -1.5131 C   0  0  0  0  0  0  0  0  0  0  0  0
    3.2959    0.5805   -1.3317 C   0  0  0  0  0  0  0  0  0  0  0  0
   -2.0801    1.4684    0.2704 N   0  0  0  0  0  0  0  0  0  0  0  0
   -4.0891    4.9949   -3.1348 H   0  0  0  0  0  0  0  0  0  0  0  0
   -2.3188    4.9441   -2.6590 H   0  0  0  0  0  0  0  0  0  0  0  0
   -3.0607    6.4147   -3.3790 H   0  0  0  0  0  0  0  0  0  0  0  0
   -2.5834    6.3624   -0.9689 H   0  0  0  0  0  0  0  0  0  0  0  0
   -4.3435    5.6792    0.4695 H   0  0  0  0  0  0  0  0  0  0  0  0
   -6.1580    4.2639   -0.3726 H   0  0  0  0  0  0  0  0  0  0  0  0
   -5.6399    4.4603   -2.0697 H   0  0  0  0  0  0  0  0  0  0  0  0
   -6.2023    5.9098   -1.0768 H   0  0  0  0  0  0  0  0  0  0  0  0
   -5.1000    2.8120    0.5268 H   0  0  0  0  0  0  0  0  0  0  0  0
   -5.1164    0.4357    1.0437 H   0  0  0  0  0  0  0  0  0  0  0  0
   -3.7983   -1.6580    1.4200 H   0  0  0  0  0  0  0  0  0  0  0  0
   -4.2547   -3.5764    0.0944 H   0  0  0  0  0  0  0  0  0  0  0  0
   -2.5149   -5.8233   -4.1336 H   0  0  0  0  0  0  0  0  0  0  0  0
   -2.1707   -4.1795   -4.7239 H   0  0  0  0  0  0  0  0  0  0  0  0
   -3.8997   -4.7620   -4.4324 H   0  0  0  0  0  0  0  0  0  0  0  0
   -0.7471   -4.0063   -2.3450 H   0  0  0  0  0  0  0  0  0  0  0  0
    1.4668   -5.0187    2.9177 H   0  0  0  0  0  0  0  0  0  0  0  0
    2.0451   -3.6992    5.8874 H   0  0  0  0  0  0  0  0  0  0  0  0
    3.4979   -3.0370    4.9612 H   0  0  0  0  0  0  0  0  0  0  0  0
    2.8867   -4.6861    4.6441 H   0  0  0  0  0  0  0  0  0  0  0  0
    1.4891   -1.1927    4.7557 H   0  0  0  0  0  0  0  0  0  0  0  0
   -0.2199   -0.4253    3.0904 H   0  0  0  0  0  0  0  0  0  0  0  0
    3.1811    0.1533    1.9714 H   0  0  0  0  0  0  0  0  0  0  0  0
    5.5732    0.4236    1.7199 H   0  0  0  0  0  0  0  0  0  0  0  0
    8.6613    1.5366    0.3740 H   0  0  0  0  0  0  0  0  0  0  0  0
    7.2758    1.3474    1.4460 H   0  0  0  0  0  0  0  0  0  0  0  0
    8.1944   -0.1165    0.7883 H   0  0  0  0  0  0  0  0  0  0  0  0
    7.0628    1.3710   -3.8432 H   0  0  0  0  0  0  0  0  0  0  0  0
    4.6249    1.0278   -3.6088 H   0  0  0  0  0  0  0  0  0  0  0  0
    2.6805    0.6118   -2.2104 H   0  0  0  0  0  0  0  0  0  0  0  0
  1  2  1  0
  2  3  1  0
  3  4  1  0
  3  5  1  0
  5  6  2  0
  5  7  1  0
  7  8  1  0
  8  9  2  0
  9 10  1  0
 10 11  2  0
 11 12  1  0
 12 13  2  0
 13 14  1  0
 14 15  1  0
 15 16  2  0
 16 17  1  0
 17 18  1  0
 17 19  1  0
 13 20  1  0
 20 21  2  0
 21 22  1  0
 22 23  2  0
 23 24  1  0
 23 25  1  0
 25 26  2  0
 26 27  1  0
 11 28  1  0
 28 29  1  0
 29 30  3  0
 30 31  1  0
 31 32  2  0
 32 33  1  0
 33 34  2  0
 34 35  1  0
 35 36  1  0
 35 37  2  0
 37 38  1  0
 38 39  2  0
 39 40  1  0
 40 41  2  0
 28 42  2  0
 42  8  1  0
 27 12  1  0
 41 31  1  0
 19 14  2  0
 27 21  1  0
 40 34  1  0
  1 43  1  0
  1 44  1  0
  1 45  1  0
  2 46  1  0
  3 47  1  1
  4 48  1  0
  4 49  1  0
  4 50  1  0
  7 51  1  0
  9 52  1  0
 10 53  1  0
 15 54  1  0
 18 55  1  0
 18 56  1  0
 18 57  1  0
 19 58  1  0
 22 59  1  0
 24 60  1  0
 24 61  1  0
 24 62  1  0
 25 63  1  0
 26 64  1  0
 32 65  1  0
 33 66  1  0
 36 67  1  0
 36 68  1  0
 36 69  1  0
 38 70  1  0
 39 71  1  0
 41 72  1  0
M  END
$$$$
