@<TRIPOS>MOLECULE
*****
 72 74 0 0 0
SMALL
GASTEIGER

@<TRIPOS>ATOM
      1 C           8.4957    3.6685    0.8844 C.3     1  UNL1       -0.0383
      2 C           8.0209    2.2742    0.6745 C.ar    1  UNL1       -0.0321
      3 C           8.9161    1.2423    0.4560 C.ar    1  UNL1        0.0308
      4 N           8.4746   -0.0147    0.2673 N.ar    1  UNL1       -0.2596
      5 C           7.1494   -0.3238    0.2824 C.ar    1  UNL1        0.0414
      6 C           6.7502   -1.7377    0.0638 C.3     1  UNL1       -0.0221
      7 C           6.2092    0.6539    0.4941 C.ar    1  UNL1       -0.0261
      8 C           4.7490    0.3741    0.5221 C.3     1  UNL1       -0.0257
      9 C           4.2903    0.1775   -0.8934 C.3     1  UNL1       -0.0461
     10 C           2.8356   -0.1119   -1.0405 C.3     1  UNL1       -0.0383
     11 C           2.3999   -1.3618   -0.3243 C.3     1  UNL1       -0.0357
     12 C           0.8915   -1.4803   -0.2793 C.3     1  UNL1        0.0204
     13 N           0.3679   -0.6886   -1.3422 N.3     1  UNL1       -0.1810
     14 S          -1.3327   -0.9759   -1.6353 S.O2    1  UNL1        0.0339
     15 O          -1.7589   -0.3734   -2.9102 O.2     1  UNL1       -0.1580
     16 O          -1.3997   -2.4917   -1.8707 O.2     1  UNL1       -0.1580
     17 C          -2.1754   -0.5476   -0.1938 C.3     1  UNL1        0.1053
     18 C          -3.6939   -0.7232   -0.2085 C.3     1  UNL1        0.0821
     19 C          -4.2253    0.1998   -1.2877 C.3     1  UNL1       -0.0396
     20 C          -4.1224   -0.3449    1.1569 C.3     1  UNL1       -0.0183
     21 C          -5.5270   -0.4222    1.5475 C.3     1  UNL1        0.0182
     22 C          -6.1462   -1.7963    1.4671 C.3     1  UNL1       -0.0554
     23 C          -6.4744    0.5345    0.9519 C.ar    1  UNL1        0.1320
     24 N          -6.7194    1.7445    1.5027 N.ar    1  UNL1       -0.2372
     25 C          -7.5923    2.6300    1.0095 C.ar    1  UNL1        0.0663
     26 C          -8.3032    2.3226   -0.1296 C.ar    1  UNL1        0.1594
     27 F          -9.2064    3.2079   -0.6624 F       1  UNL1       -0.2023
     28 C          -8.0768    1.0962   -0.7162 C.ar    1  UNL1        0.0663
     29 N          -7.1883    0.2460   -0.1774 N.ar    1  UNL1       -0.2372
     30 N          -3.9177   -2.1088   -0.5332 N.am    1  UNL1       -0.1788
     31 O          -4.6072   -2.4118   -1.6447 O.3     1  UNL1       -0.2921
     32 C          -3.4304   -3.1465    0.2841 C.2     1  UNL1        0.2256
     33 O          -3.5892   -4.3639    0.0571 O.2     1  UNL1       -0.2772
     34 C           0.5458    0.7225   -1.1205 C.3     1  UNL1        0.0204
     35 C           1.9518    1.0222   -0.5996 C.3     1  UNL1       -0.0357
     36 C           6.6881    1.9427    0.6862 C.ar    1  UNL1       -0.0525
     37 H           8.3647    4.2276   -0.0701 H       1  UNL1        0.0278
     38 H           7.7610    4.1306    1.6042 H       1  UNL1        0.0278
     39 H           9.5223    3.7048    1.2579 H       1  UNL1        0.0278
     40 H           9.9691    1.4911    0.4446 H       1  UNL1        0.0832
     41 H           6.8553   -1.9145   -1.0438 H       1  UNL1        0.0293
     42 H           7.5029   -2.4031    0.5502 H       1  UNL1        0.0293
     43 H           5.7310   -1.9459    0.4235 H       1  UNL1        0.0293
     44 H           4.5632   -0.4805    1.1904 H       1  UNL1        0.0314
     45 H           4.2540    1.2801    0.9425 H       1  UNL1        0.0314
     46 H           4.5127    1.1276   -1.4341 H       1  UNL1        0.0271
     47 H           4.8534   -0.6398   -1.3868 H       1  UNL1        0.0271
     48 H           2.6473   -0.2476   -2.1401 H       1  UNL1        0.0302
     49 H           2.8298   -1.4227    0.6978 H       1  UNL1        0.0281
     50 H           2.7738   -2.2679   -0.8819 H       1  UNL1        0.0281
     51 H           0.6041   -2.5355   -0.3845 H       1  UNL1        0.0444
     52 H           0.5512   -1.1525    0.7264 H       1  UNL1        0.0444
     53 H          -1.8281   -1.2356    0.6314 H       1  UNL1        0.0538
     54 H          -1.9447    0.4724    0.1943 H       1  UNL1        0.0538
     55 H          -5.0203   -0.3399   -1.8324 H       1  UNL1        0.0252
     56 H          -4.7092    1.1034   -0.8367 H       1  UNL1        0.0252
     57 H          -3.4354    0.6344   -1.9294 H       1  UNL1        0.0252
     58 H          -3.4898   -0.9011    1.8879 H       1  UNL1        0.0294
     59 H          -3.7970    0.7302    1.2967 H       1  UNL1        0.0294
     60 H          -5.5398   -0.1600    2.6600 H       1  UNL1        0.0377
     61 H          -7.1582   -1.6955    1.9638 H       1  UNL1        0.0236
     62 H          -6.3594   -2.1361    0.4492 H       1  UNL1        0.0236
     63 H          -5.6049   -2.5305    2.0973 H       1  UNL1        0.0236
     64 H          -7.7683    3.5883    1.4690 H       1  UNL1        0.0860
     65 H          -8.6392    0.8590   -1.6129 H       1  UNL1        0.0860
     66 H          -4.8527   -3.3691   -1.7040 H       1  UNL1        0.2417
     67 H          -2.8775   -2.8881    1.1752 H       1  UNL1        0.1274
     68 H          -0.1400    1.1448   -0.3681 H       1  UNL1        0.0444
     69 H           0.4033    1.2889   -2.0784 H       1  UNL1        0.0444
     70 H           2.2929    1.9645   -1.0576 H       1  UNL1        0.0281
     71 H           1.9429    1.1248    0.5093 H       1  UNL1        0.0281
     72 H           5.9801    2.7591    0.8588 H       1  UNL1        0.0624
@<TRIPOS>BOND
     1     1     2    1
     2     2     3   ar
     3     3     4   ar
     4     4     5   ar
     5     5     6    1
     6     5     7   ar
     7     7     8    1
     8     8     9    1
     9     9    10    1
    10    10    11    1
    11    11    12    1
    12    12    13    1
    13    13    14    1
    14    14    15    2
    15    14    16    2
    16    14    17    1
    17    17    18    1
    18    18    19    1
    19    18    20    1
    20    20    21    1
    21    21    22    1
    22    21    23    1
    23    23    24   ar
    24    24    25   ar
    25    25    26   ar
    26    26    27    1
    27    26    28   ar
    28    28    29   ar
    29    18    30    1
    30    30    31    1
    31    30    32   am
    32    32    33    2
    33    13    34    1
    34    34    35    1
    35     7    36   ar
    36    36     2   ar
    37    35    10    1
    38    29    23   ar
    39     1    37    1
    40     1    38    1
    41     1    39    1
    42     3    40    1
    43     6    41    1
    44     6    42    1
    45     6    43    1
    46     8    44    1
    47     8    45    1
    48     9    46    1
    49     9    47    1
    50    10    48    1
    51    11    49    1
    52    11    50    1
    53    12    51    1
    54    12    52    1
    55    17    53    1
    56    17    54    1
    57    19    55    1
    58    19    56    1
    59    19    57    1
    60    20    58    1
    61    20    59    1
    62    21    60    1
    63    22    61    1
    64    22    62    1
    65    22    63    1
    66    25    64    1
    67    28    65    1
    68    31    66    1
    69    32    67    1
    70    34    68    1
    71    34    69    1
    72    35    70    1
    73    35    71    1
    74    36    72    1
