@<TRIPOS>MOLECULE
*****
 109 113 0 0 0
SMALL
GASTEIGER

@<TRIPOS>ATOM
      1 C           5.8822    5.8998    3.1265 C.1     1  UNL1       -0.1139
      2 C           5.9310    4.8441    2.5903 C.1     1  UNL1       -0.0696
      3 C           6.0048    3.5812    1.9509 C.ar    1  UNL1        0.0271
      4 C           5.1614    3.3525    0.8678 C.ar    1  UNL1       -0.0250
      5 C           5.1747    2.1215    0.2930 C.ar    1  UNL1        0.0354
      6 N           4.3306    1.8761   -0.8374 N.pl3   1  UNL1       -0.2835
      7 C           3.5667    0.6920   -0.8436 C.ar    1  UNL1        0.2226
      8 N           4.1167   -0.5020   -1.0469 N.ar    1  UNL1       -0.2225
      9 C           3.3598   -1.6391   -1.0487 C.ar    1  UNL1        0.0362
     10 C           2.0104   -1.4946   -0.8326 C.ar    1  UNL1        0.0186
     11 C           1.4123   -0.2646   -0.6192 C.ar    1  UNL1        0.2249
     12 O           0.1398   -0.1108   -0.4130 O.3     1  UNL1       -0.4373
     13 C          -1.0510   -0.6279   -0.2928 C.ar    1  UNL1        0.1381
     14 C          -1.7216   -0.4601    0.9279 C.ar    1  UNL1       -0.0169
     15 C          -2.9800   -0.9748    1.1377 C.ar    1  UNL1       -0.0363
     16 C          -3.6446   -1.6728    0.1760 C.ar    1  UNL1        0.0427
     17 N          -4.9421   -2.2349    0.3424 N.am    1  UNL1       -0.2686
     18 C          -6.0761   -1.4281    0.0818 C.2     1  UNL1        0.3082
     19 O          -5.9874   -0.2237   -0.2651 O.2     1  UNL1       -0.2521
     20 N          -7.4002   -1.9629    0.2047 N.am    1  UNL1       -0.2660
     21 C          -8.5668   -1.2009   -0.0298 C.ar    1  UNL1        0.0789
     22 C          -8.9766   -1.1097   -1.3560 C.ar    1  UNL1       -0.0330
     23 C         -10.1011   -0.4025   -1.7242 C.ar    1  UNL1       -0.0382
     24 C         -10.4863   -0.3380   -3.1720 C.3     1  UNL1       -0.0126
     25 C         -11.3653   -1.5281   -3.5134 C.3     1  UNL1       -0.0560
     26 C         -11.2251    0.9477   -3.4690 C.3     1  UNL1       -0.0560
     27 C          -9.2536   -0.3699   -4.0583 C.3     1  UNL1       -0.0560
     28 C         -10.8268    0.2251   -0.7307 C.ar    1  UNL1       -0.0320
     29 C         -10.4179    0.1323    0.5939 C.ar    1  UNL1        0.0913
     30 N         -11.2182    0.7425    1.5765 N.pl3   1  UNL1       -0.2173
     31 S         -11.2416    2.4229    1.9285 S.O2    1  UNL1        0.0404
     32 C          -9.6135    2.9351    2.4975 C.3     1  UNL1        0.0736
     33 O         -12.1875    2.6643    3.0904 O.2     1  UNL1       -0.1555
     34 O         -11.6402    3.2480    0.7587 O.2     1  UNL1       -0.1555
     35 C          -9.2889   -0.5784    0.9497 C.ar    1  UNL1        0.1634
     36 O          -8.8934   -0.6608    2.2527 O.3     1  UNL1       -0.4914
     37 C          -9.2573   -1.6162    3.2043 C.3     1  UNL1        0.0790
     38 C          -2.9977   -1.8573   -1.0611 C.ar    1  UNL1        0.0069
     39 C          -3.6882   -2.5670   -2.0214 C.ar    1  UNL1       -0.0521
     40 C          -3.0508   -2.7524   -3.2458 C.ar    1  UNL1       -0.0611
     41 C          -1.8048   -2.2449   -3.4593 C.ar    1  UNL1       -0.0611
     42 C          -1.1566   -1.5433   -2.4691 C.ar    1  UNL1       -0.0505
     43 C          -1.7563   -1.3382   -1.2402 C.ar    1  UNL1        0.0262
     44 N           2.2497    0.8141   -0.6357 N.ar    1  UNL1       -0.1789
     45 C           6.0159    1.1313    0.7864 C.ar    1  UNL1       -0.0283
     46 C           6.8554    1.3440    1.8525 C.ar    1  UNL1        0.0396
     47 C           7.7385    0.3288    2.3718 C.2     1  UNL1        0.2442
     48 O           8.5647    0.6566    3.2925 O.2     1  UNL1       -0.2702
     49 N           7.7504   -1.0159    1.9278 N.am    1  UNL1       -0.3092
     50 C           8.6348   -1.9978    2.4412 C.3     1  UNL1        0.0353
     51 C          10.0890   -1.7764    2.1898 C.3     1  UNL1        0.0633
     52 O          10.4291   -1.7510    0.8916 O.3     1  UNL1       -0.3760
     53 C          10.0354   -0.7675    0.0534 C.3     1  UNL1        0.0711
     54 C          10.6793    0.5684    0.4424 C.3     1  UNL1        0.0711
     55 O          12.0722    0.3489    0.3377 O.3     1  UNL1       -0.3752
     56 C          12.7709    1.4963    0.6634 C.3     1  UNL1        0.0711
     57 C          14.2500    1.1342    0.5095 C.3     1  UNL1        0.0706
     58 O          14.4171    0.7586   -0.8196 O.3     1  UNL1       -0.3807
     59 C          15.7554    0.3999   -1.0503 C.3     1  UNL1        0.0365
     60 C           6.8371    2.5920    2.4317 C.ar    1  UNL1       -0.0341
     61 H           5.8239    6.8242    3.6060 H       1  UNL1        0.1232
     62 H           4.5013    4.1064    0.4741 H       1  UNL1        0.0648
     63 H           4.2870    2.5618   -1.6324 H       1  UNL1        0.1550
     64 H           3.7636   -2.6188   -1.2058 H       1  UNL1        0.0832
     65 H           1.3586   -2.3909   -0.8205 H       1  UNL1        0.0686
     66 H          -1.2611    0.0791    1.7300 H       1  UNL1        0.0655
     67 H          -3.4760   -0.8229    2.1079 H       1  UNL1        0.0637
     68 H          -5.0301   -3.2418    0.6541 H       1  UNL1        0.1564
     69 H          -7.4988   -2.9506    0.4787 H       1  UNL1        0.1565
     70 H          -8.4249   -1.5942   -2.1583 H       1  UNL1        0.0640
     71 H         -11.8496   -1.9594   -2.6338 H       1  UNL1        0.0238
     72 H         -12.0794   -1.2006   -4.3087 H       1  UNL1        0.0238
     73 H         -10.7456   -2.3463   -3.9560 H       1  UNL1        0.0238
     74 H         -12.3138    0.7919   -3.3361 H       1  UNL1        0.0238
     75 H         -11.0864    1.1863   -4.5636 H       1  UNL1        0.0238
     76 H         -10.8982    1.7723   -2.8443 H       1  UNL1        0.0238
     77 H          -8.3418    0.0253   -3.5193 H       1  UNL1        0.0238
     78 H          -9.3818    0.2430   -4.9853 H       1  UNL1        0.0238
     79 H          -9.0182   -1.4124   -4.3467 H       1  UNL1        0.0238
     80 H         -11.6968    0.7683   -1.0200 H       1  UNL1        0.0641
     81 H         -11.8433    0.0877    2.1245 H       1  UNL1        0.1734
     82 H          -8.9121    3.0500    1.6689 H       1  UNL1        0.0482
     83 H          -9.2185    2.1175    3.1816 H       1  UNL1        0.0482
     84 H          -9.6692    3.8558    3.1067 H       1  UNL1        0.0482
     85 H          -8.5906   -1.4537    4.0999 H       1  UNL1        0.0660
     86 H          -9.1415   -2.6575    2.8859 H       1  UNL1        0.0660
     87 H         -10.2840   -1.4772    3.6020 H       1  UNL1        0.0660
     88 H          -4.6786   -2.9667   -1.8373 H       1  UNL1        0.0624
     89 H          -3.5659   -3.3083   -4.0266 H       1  UNL1        0.0618
     90 H          -1.3156   -2.3873   -4.3981 H       1  UNL1        0.0618
     91 H          -0.1908   -1.1502   -2.6360 H       1  UNL1        0.0625
     92 H           5.9716    0.1808    0.2751 H       1  UNL1        0.0644
     93 H           7.0339   -1.2439    1.1815 H       1  UNL1        0.1491
     94 H           8.3369   -2.9911    1.9833 H       1  UNL1        0.0485
     95 H           8.4792   -2.1495    3.5447 H       1  UNL1        0.0485
     96 H          10.3748   -0.8034    2.6897 H       1  UNL1        0.0575
     97 H          10.6255   -2.6062    2.7509 H       1  UNL1        0.0575
     98 H           8.9528   -0.6175   -0.0562 H       1  UNL1        0.0583
     99 H          10.4663   -1.0215   -0.9735 H       1  UNL1        0.0583
    100 H          10.4006    1.3573   -0.2673 H       1  UNL1        0.0583
    101 H          10.4956    0.8678    1.4598 H       1  UNL1        0.0583
    102 H          12.5716    2.2787   -0.1091 H       1  UNL1        0.0583
    103 H          12.5738    1.8813    1.6802 H       1  UNL1        0.0583
    104 H          14.4522    0.2684    1.1909 H       1  UNL1        0.0582
    105 H          14.9037    1.9959    0.7343 H       1  UNL1        0.0582
    106 H          16.0239   -0.4433   -0.3755 H       1  UNL1        0.0524
    107 H          15.8395    0.1315   -2.1135 H       1  UNL1        0.0524
    108 H          16.3809    1.2914   -0.8483 H       1  UNL1        0.0524
    109 H           7.4774    2.7978    3.2740 H       1  UNL1        0.0637
@<TRIPOS>BOND
     1     1     2    3
     2     2     3    1
     3     3     4   ar
     4     4     5   ar
     5     5     6    1
     6     6     7    1
     7     7     8   ar
     8     8     9   ar
     9     9    10   ar
    10    10    11   ar
    11    11    12    1
    12    12    13    1
    13    13    14   ar
    14    14    15   ar
    15    15    16   ar
    16    16    17    1
    17    17    18   am
    18    18    19    2
    19    18    20   am
    20    20    21    1
    21    21    22   ar
    22    22    23   ar
    23    23    24    1
    24    24    25    1
    25    24    26    1
    26    24    27    1
    27    23    28   ar
    28    28    29   ar
    29    29    30    1
    30    30    31    1
    31    31    32    1
    32    31    33    2
    33    31    34    2
    34    29    35   ar
    35    35    36    1
    36    36    37    1
    37    16    38   ar
    38    38    39   ar
    39    39    40   ar
    40    40    41   ar
    41    41    42   ar
    42    42    43   ar
    43    11    44   ar
    44     5    45   ar
    45    45    46   ar
    46    46    47    1
    47    47    48    2
    48    47    49   am
    49    49    50    1
    50    50    51    1
    51    51    52    1
    52    52    53    1
    53    53    54    1
    54    54    55    1
    55    55    56    1
    56    56    57    1
    57    57    58    1
    58    58    59    1
    59    46    60   ar
    60    60     3   ar
    61    44     7   ar
    62    43    13   ar
    63    35    21   ar
    64    43    38   ar
    65     1    61    1
    66     4    62    1
    67     6    63    1
    68     9    64    1
    69    10    65    1
    70    14    66    1
    71    15    67    1
    72    17    68    1
    73    20    69    1
    74    22    70    1
    75    25    71    1
    76    25    72    1
    77    25    73    1
    78    26    74    1
    79    26    75    1
    80    26    76    1
    81    27    77    1
    82    27    78    1
    83    27    79    1
    84    28    80    1
    85    30    81    1
    86    32    82    1
    87    32    83    1
    88    32    84    1
    89    37    85    1
    90    37    86    1
    91    37    87    1
    92    39    88    1
    93    40    89    1
    94    41    90    1
    95    42    91    1
    96    45    92    1
    97    49    93    1
    98    50    94    1
    99    50    95    1
   100    51    96    1
   101    51    97    1
   102    53    98    1
   103    53    99    1
   104    54   100    1
   105    54   101    1
   106    56   102    1
   107    56   103    1
   108    57   104    1
   109    57   105    1
   110    59   106    1
   111    59   107    1
   112    59   108    1
   113    60   109    1
