@<TRIPOS>MOLECULE
*****
 27 28 0 0 0
SMALL
GASTEIGER

@<TRIPOS>ATOM
      1 N          -2.8121   -1.4006    0.3297 N.3     1  UNL1       -0.3181
      2 CA         -2.4653   -0.1627    0.9488 C.3     1  UNL1        0.1073
      3 C          -1.0035   -0.0691    1.2180 C.3     1  UNL1       -0.0001
      4 C          -0.1548   -0.1630    0.0152 C.ar    1  UNL1       -0.0203
      5 C          -0.3507   -0.3185   -1.3337 C.ar    1  UNL1        0.0060
      6 N           0.7963   -0.3417   -2.0074 N.ar    1  UNL1       -0.3604
      7 C           1.7732   -0.1992   -1.0924 C.ar    1  UNL1        0.0469
      8 C           1.2325   -0.0841    0.1813 C.ar    1  UNL1        0.0056
      9 C           2.1149    0.0691    1.2330 C.ar    1  UNL1       -0.0170
     10 C           3.4803    0.1060    1.0230 C.ar    1  UNL1        0.1241
     11 F           4.2592    0.2590    2.1142 F       1  UNL1       -0.2055
     12 C           4.0221   -0.0086   -0.2467 C.ar    1  UNL1       -0.0245
     13 C           3.1409   -0.1629   -1.3093 C.ar    1  UNL1       -0.0351
     14 C          -2.9422    1.0295    0.1943 C.2     1  UNL1        0.3220
     15 O          -3.6639    0.9557   -1.0105 O.3     1  UNL1       -0.4795
     16 OXT        -2.6978    2.1811    0.6399 O.2     1  UNL1       -0.2492
     17 H1         -2.0437   -1.9745   -0.0318 H       1  UNL1        0.1190
     18 H2         -3.7015   -1.4225   -0.1769 H       1  UNL1        0.1190
     19 HA         -2.9810   -0.1222    1.9286 H       1  UNL1        0.0577
     20 H          -0.7602    0.8678    1.7725 H       1  UNL1        0.0334
     21 H          -0.7404   -0.9640    1.8508 H       1  UNL1        0.0334
     22 H          -1.3525   -0.4033   -1.7092 H       1  UNL1        0.0810
     23 H           0.8976   -0.4499   -3.0420 H       1  UNL1        0.1653
     24 H           1.6923    0.1586    2.2246 H       1  UNL1        0.0653
     25 H           5.0995    0.0305   -0.3209 H       1  UNL1        0.0647
     26 H           3.5783   -0.2504   -2.2880 H       1  UNL1        0.0639
     27 H          -4.4173    1.6296   -1.1052 H       1  UNL1        0.2951
@<TRIPOS>BOND
     1     1     2    1
     2     2     3    1
     3     3     4    1
     4     4     5   ar
     5     5     6   ar
     6     6     7   ar
     7     7     8   ar
     8     8     9   ar
     9     9    10   ar
    10    10    11    1
    11    10    12   ar
    12    12    13   ar
    13     2    14    1
    14    14    15    1
    15    14    16    2
    16     8     4   ar
    17    13     7   ar
    18     1    17    1
    19     1    18    1
    20     2    19    1
    21     3    20    1
    22     3    21    1
    23     5    22    1
    24     6    23    1
    25     9    24    1
    26    12    25    1
    27    13    26    1
    28    15    27    1
