@<TRIPOS>MOLECULE
*****
 35 37 0 0 0
SMALL
GASTEIGER

@<TRIPOS>ATOM
      1 C           5.4826    0.4161   -0.3180 C.3     1  UNL1        0.0127
      2 C           4.0712    0.8394   -0.4612 C.2     1  UNL1        0.2167
      3 O           3.8613    1.9694   -0.9707 O.2     1  UNL1       -0.2756
      4 N           3.0097    0.0124   -0.0448 N.am    1  UNL1       -0.2711
      5 C           3.1267   -1.2839    0.5444 C.3     1  UNL1        0.0238
      6 C           1.7792   -1.6070    1.1342 C.3     1  UNL1       -0.0097
      7 C           0.8660   -0.5954    0.5401 C.ar    1  UNL1       -0.0239
      8 C          -0.5182   -0.4859    0.5846 C.ar    1  UNL1       -0.0490
      9 C          -1.1865    0.5431   -0.0419 C.ar    1  UNL1       -0.0158
     10 C          -2.6357    0.6990   -0.0240 C.ar    1  UNL1        0.0031
     11 C          -3.2258    1.9409    0.2309 C.ar    1  UNL1        0.0355
     12 N          -4.5406    2.1227    0.2571 N.ar    1  UNL1       -0.2626
     13 C          -5.3692    1.0856    0.0322 C.ar    1  UNL1        0.0278
     14 C          -4.8445   -0.1520   -0.2224 C.ar    1  UNL1       -0.0401
     15 C          -3.4957   -0.3495   -0.2516 C.ar    1  UNL1       -0.0399
     16 C          -2.9771   -1.7046   -0.5325 C.3     1  UNL1       -0.0390
     17 C          -0.4288    1.4676   -0.7197 C.ar    1  UNL1       -0.0522
     18 C           0.9666    1.3687   -0.7722 C.ar    1  UNL1       -0.0394
     19 C           1.6141    0.3439   -0.1467 C.ar    1  UNL1        0.0395
     20 H           5.8548    0.5446    0.7259 H       1  UNL1        0.0323
     21 H           6.1552    1.0095   -0.9705 H       1  UNL1        0.0323
     22 H           5.5731   -0.6391   -0.6561 H       1  UNL1        0.0323
     23 H           3.3735   -2.0270   -0.2433 H       1  UNL1        0.0472
     24 H           3.9204   -1.3532    1.3146 H       1  UNL1        0.0472
     25 H           1.4375   -2.6218    0.8008 H       1  UNL1        0.0329
     26 H           1.7798   -1.5916    2.2385 H       1  UNL1        0.0329
     27 H          -1.0690   -1.2419    1.1341 H       1  UNL1        0.0627
     28 H          -2.5466    2.7617    0.4091 H       1  UNL1        0.0836
     29 H          -6.4370    1.2927    0.0659 H       1  UNL1        0.0829
     30 H          -5.5589   -0.9618   -0.3986 H       1  UNL1        0.0635
     31 H          -3.6876   -2.1596   -1.2834 H       1  UNL1        0.0278
     32 H          -1.9934   -1.7124   -1.0267 H       1  UNL1        0.0278
     33 H          -3.0539   -2.3407    0.3588 H       1  UNL1        0.0278
     34 H          -0.8562    2.3101   -1.2428 H       1  UNL1        0.0624
     35 H           1.5530    2.1001   -1.3074 H       1  UNL1        0.0636
@<TRIPOS>BOND
     1     1     2    1
     2     2     3    2
     3     2     4   am
     4     4     5    1
     5     5     6    1
     6     6     7    1
     7     7     8   ar
     8     8     9   ar
     9     9    10    1
    10    10    11   ar
    11    11    12   ar
    12    12    13   ar
    13    13    14   ar
    14    14    15   ar
    15    15    16    1
    16     9    17   ar
    17    17    18   ar
    18    18    19   ar
    19    19     4    1
    20    19     7   ar
    21    15    10   ar
    22     1    20    1
    23     1    21    1
    24     1    22    1
    25     5    23    1
    26     5    24    1
    27     6    25    1
    28     6    26    1
    29     8    27    1
    30    11    28    1
    31    13    29    1
    32    14    30    1
    33    16    31    1
    34    16    32    1
    35    16    33    1
    36    17    34    1
    37    18    35    1
