@<TRIPOS>MOLECULE
*****
 67 70 0 0 0
SMALL
GASTEIGER

@<TRIPOS>ATOM
      1 O          -2.3146   -1.0303   -0.9623 O.2     1  UNL1       -0.2758
      2 C          -1.9857    0.0087   -0.3642 C.2     1  UNL1        0.2134
      3 C          -0.5805    0.5190   -0.2845 C.3     1  UNL1        0.0240
      4 C           0.3262   -0.4202   -1.0397 C.3     1  UNL1       -0.0448
      5 C           1.7390    0.1132   -0.9413 C.3     1  UNL1       -0.0515
      6 C           2.6329   -0.8536   -1.7108 C.3     1  UNL1       -0.0402
      7 C           4.0391   -0.3136   -1.6010 C.3     1  UNL1       -0.0006
      8 N           4.4367   -0.2387   -0.2212 N.3     1  UNL1       -0.2923
      9 C           4.5975   -1.5505    0.3123 C.3     1  UNL1        0.0279
     10 C           6.0564   -1.9638    0.0600 C.3     1  UNL1        0.0962
     11 O           6.1922   -3.3500    0.2654 O.3     1  UNL1       -0.3879
     12 C           6.9044   -1.1839    1.0233 C.3     1  UNL1        0.1095
     13 O           8.2386   -1.1220    0.6278 O.3     1  UNL1       -0.3866
     14 C           6.3041    0.1723    1.2386 C.3     1  UNL1        0.1011
     15 O           5.5278    0.2359    2.4166 O.3     1  UNL1       -0.3875
     16 C           5.4960    0.6728    0.0613 C.3     1  UNL1        0.0621
     17 C           4.9745    2.0507    0.4230 C.3     1  UNL1        0.0622
     18 O           4.2424    2.5214   -0.6639 O.3     1  UNL1       -0.3934
     19 N          -2.9947    0.7577    0.2823 N.am    1  UNL1       -0.3097
     20 C          -4.3697    0.3942    0.2877 C.3     1  UNL1        0.0353
     21 C          -4.8686    0.3728   -1.1385 C.3     1  UNL1       -0.0287
     22 C          -6.3717    0.1922   -1.1720 C.3     1  UNL1       -0.0386
     23 C          -7.0317    1.2778   -0.3896 C.3     1  UNL1       -0.0472
     24 C          -6.5959    1.1816    1.0581 C.3     1  UNL1       -0.0386
     25 C          -6.8571   -0.1932    1.6357 C.3     1  UNL1       -0.0472
     26 C          -6.1214   -1.2273    0.8087 C.3     1  UNL1       -0.0386
     27 C          -6.6434   -1.1819   -0.5925 C.3     1  UNL1       -0.0472
     28 C          -4.6364   -0.9602    0.8914 C.3     1  UNL1       -0.0287
     29 C          -5.1285    1.4460    1.1081 C.3     1  UNL1       -0.0287
     30 H          -0.2196    0.6299    0.7370 H       1  UNL1        0.0358
     31 H          -0.5729    1.4894   -0.8215 H       1  UNL1        0.0358
     32 H           0.0741   -0.4828   -2.1131 H       1  UNL1        0.0270
     33 H           0.2386   -1.4235   -0.5744 H       1  UNL1        0.0270
     34 H           2.0814    0.1140    0.1109 H       1  UNL1        0.0266
     35 H           1.7988    1.0892   -1.4249 H       1  UNL1        0.0266
     36 H           2.3667   -0.8160   -2.8058 H       1  UNL1        0.0278
     37 H           2.5007   -1.8872   -1.3977 H       1  UNL1        0.0278
     38 H           4.0246    0.6879   -2.0796 H       1  UNL1        0.0427
     39 H           4.7481   -0.9966   -2.1295 H       1  UNL1        0.0427
     40 H           4.4870   -1.5964    1.4357 H       1  UNL1        0.0453
     41 H           3.9608   -2.3294   -0.1169 H       1  UNL1        0.0453
     42 H           6.2803   -1.7885   -0.9920 H       1  UNL1        0.0633
     43 H           6.8174   -3.7528   -0.3989 H       1  UNL1        0.2099
     44 H           6.8472   -1.7340    2.0042 H       1  UNL1        0.0646
     45 H           8.2142   -0.8510   -0.3378 H       1  UNL1        0.2100
     46 H           7.1427    0.8943    1.4339 H       1  UNL1        0.0636
     47 H           6.0301    0.5827    3.1824 H       1  UNL1        0.2100
     48 H           6.2081    0.8099   -0.7808 H       1  UNL1        0.0511
     49 H           5.8728    2.7021    0.5136 H       1  UNL1        0.0573
     50 H           4.3682    2.0422    1.3488 H       1  UNL1        0.0573
     51 H           4.3952    3.5040   -0.7483 H       1  UNL1        0.2095
     52 H          -2.7169    1.6423    0.7951 H       1  UNL1        0.1492
     53 H          -4.4421   -0.5210   -1.6334 H       1  UNL1        0.0288
     54 H          -4.5654    1.2975   -1.6664 H       1  UNL1        0.0288
     55 H          -6.6946    0.2268   -2.2288 H       1  UNL1        0.0302
     56 H          -6.6456    2.2578   -0.7595 H       1  UNL1        0.0271
     57 H          -8.1215    1.2932   -0.5069 H       1  UNL1        0.0271
     58 H          -7.1429    1.9304    1.6434 H       1  UNL1        0.0302
     59 H          -7.9284   -0.3967    1.6510 H       1  UNL1        0.0271
     60 H          -6.3819   -0.2013    2.6472 H       1  UNL1        0.0271
     61 H          -6.3363   -2.2223    1.2778 H       1  UNL1        0.0302
     62 H          -7.7091   -1.4054   -0.5915 H       1  UNL1        0.0271
     63 H          -6.1259   -1.9050   -1.2582 H       1  UNL1        0.0271
     64 H          -4.0978   -1.7393    0.3556 H       1  UNL1        0.0288
     65 H          -4.3880   -0.9324    1.9873 H       1  UNL1        0.0288
     66 H          -4.8564    2.4210    0.6879 H       1  UNL1        0.0288
     67 H          -4.7189    1.3535    2.1349 H       1  UNL1        0.0288
@<TRIPOS>BOND
     1     1     2    2
     2     2     3    1
     3     3     4    1
     4     4     5    1
     5     5     6    1
     6     6     7    1
     7     7     8    1
     8     8     9    1
     9     9    10    1
    10    10    11    1
    11    10    12    1
    12    12    13    1
    13    12    14    1
    14    14    15    1
    15    14    16    1
    16    16    17    1
    17    17    18    1
    18     2    19   am
    19    19    20    1
    20    20    21    1
    21    21    22    1
    22    22    23    1
    23    23    24    1
    24    24    25    1
    25    25    26    1
    26    26    27    1
    27    26    28    1
    28    24    29    1
    29    16     8    1
    30    28    20    1
    31    29    20    1
    32    27    22    1
    33     3    30    1
    34     3    31    1
    35     4    32    1
    36     4    33    1
    37     5    34    1
    38     5    35    1
    39     6    36    1
    40     6    37    1
    41     7    38    1
    42     7    39    1
    43     9    40    1
    44     9    41    1
    45    10    42    1
    46    11    43    1
    47    12    44    1
    48    13    45    1
    49    14    46    1
    50    15    47    1
    51    16    48    1
    52    17    49    1
    53    17    50    1
    54    18    51    1
    55    19    52    1
    56    21    53    1
    57    21    54    1
    58    22    55    1
    59    23    56    1
    60    23    57    1
    61    24    58    1
    62    25    59    1
    63    25    60    1
    64    26    61    1
    65    27    62    1
    66    27    63    1
    67    28    64    1
    68    28    65    1
    69    29    66    1
    70    29    67    1
