
     RDKit          3D

 67 70  0  0  0  0  0  0  0  0999 V2000
   -2.3146   -1.0303   -0.9623 O   0  0  0  0  0  0  0  0  0  0  0  0
   -1.9857    0.0087   -0.3642 C   0  0  0  0  0  0  0  0  0  0  0  0
   -0.5805    0.5190   -0.2845 C   0  0  0  0  0  0  0  0  0  0  0  0
    0.3262   -0.4202   -1.0397 C   0  0  0  0  0  0  0  0  0  0  0  0
    1.7390    0.1132   -0.9413 C   0  0  0  0  0  0  0  0  0  0  0  0
    2.6329   -0.8536   -1.7108 C   0  0  0  0  0  0  0  0  0  0  0  0
    4.0391   -0.3136   -1.6010 C   0  0  0  0  0  0  0  0  0  0  0  0
    4.4367   -0.2387   -0.2212 N   0  0  0  0  0  0  0  0  0  0  0  0
    4.5975   -1.5505    0.3123 C   0  0  0  0  0  0  0  0  0  0  0  0
    6.0564   -1.9638    0.0600 C   0  0  2  0  0  0  0  0  0  0  0  0
    6.1922   -3.3500    0.2654 O   0  0  0  0  0  0  0  0  0  0  0  0
    6.9044   -1.1839    1.0233 C   0  0  1  0  0  0  0  0  0  0  0  0
    8.2386   -1.1220    0.6278 O   0  0  0  0  0  0  0  0  0  0  0  0
    6.3041    0.1723    1.2386 C   0  0  2  0  0  0  0  0  0  0  0  0
    5.5278    0.2359    2.4166 O   0  0  0  0  0  0  0  0  0  0  0  0
    5.4960    0.6728    0.0613 C   0  0  2  0  0  0  0  0  0  0  0  0
    4.9745    2.0507    0.4230 C   0  0  0  0  0  0  0  0  0  0  0  0
    4.2424    2.5214   -0.6639 O   0  0  0  0  0  0  0  0  0  0  0  0
   -2.9947    0.7577    0.2823 N   0  0  0  0  0  0  0  0  0  0  0  0
   -4.3697    0.3942    0.2877 C   0  0  0  0  0  0  0  0  0  0  0  0
   -4.8686    0.3728   -1.1385 C   0  0  0  0  0  0  0  0  0  0  0  0
   -6.3717    0.1922   -1.1720 C   0  0  0  0  0  0  0  0  0  0  0  0
   -7.0317    1.2778   -0.3896 C   0  0  0  0  0  0  0  0  0  0  0  0
   -6.5959    1.1816    1.0581 C   0  0  0  0  0  0  0  0  0  0  0  0
   -6.8571   -0.1932    1.6357 C   0  0  0  0  0  0  0  0  0  0  0  0
   -6.1214   -1.2273    0.8087 C   0  0  0  0  0  0  0  0  0  0  0  0
   -6.6434   -1.1819   -0.5925 C   0  0  0  0  0  0  0  0  0  0  0  0
   -4.6364   -0.9602    0.8914 C   0  0  0  0  0  0  0  0  0  0  0  0
   -5.1285    1.4460    1.1081 C   0  0  0  0  0  0  0  0  0  0  0  0
   -0.2196    0.6299    0.7370 H   0  0  0  0  0  0  0  0  0  0  0  0
   -0.5729    1.4894   -0.8215 H   0  0  0  0  0  0  0  0  0  0  0  0
    0.0741   -0.4828   -2.1131 H   0  0  0  0  0  0  0  0  0  0  0  0
    0.2386   -1.4235   -0.5744 H   0  0  0  0  0  0  0  0  0  0  0  0
    2.0814    0.1140    0.1109 H   0  0  0  0  0  0  0  0  0  0  0  0
    1.7988    1.0892   -1.4249 H   0  0  0  0  0  0  0  0  0  0  0  0
    2.3667   -0.8160   -2.8058 H   0  0  0  0  0  0  0  0  0  0  0  0
    2.5007   -1.8872   -1.3977 H   0  0  0  0  0  0  0  0  0  0  0  0
    4.0246    0.6879   -2.0796 H   0  0  0  0  0  0  0  0  0  0  0  0
    4.7481   -0.9966   -2.1295 H   0  0  0  0  0  0  0  0  0  0  0  0
    4.4870   -1.5964    1.4357 H   0  0  0  0  0  0  0  0  0  0  0  0
    3.9608   -2.3294   -0.1169 H   0  0  0  0  0  0  0  0  0  0  0  0
    6.2803   -1.7885   -0.9920 H   0  0  0  0  0  0  0  0  0  0  0  0
    6.8174   -3.7528   -0.3989 H   0  0  0  0  0  0  0  0  0  0  0  0
    6.8472   -1.7340    2.0042 H   0  0  0  0  0  0  0  0  0  0  0  0
    8.2142   -0.8510   -0.3378 H   0  0  0  0  0  0  0  0  0  0  0  0
    7.1427    0.8943    1.4339 H   0  0  0  0  0  0  0  0  0  0  0  0
    6.0301    0.5827    3.1824 H   0  0  0  0  0  0  0  0  0  0  0  0
    6.2081    0.8099   -0.7808 H   0  0  0  0  0  0  0  0  0  0  0  0
    5.8728    2.7021    0.5136 H   0  0  0  0  0  0  0  0  0  0  0  0
    4.3682    2.0422    1.3488 H   0  0  0  0  0  0  0  0  0  0  0  0
    4.3952    3.5040   -0.7483 H   0  0  0  0  0  0  0  0  0  0  0  0
   -2.7169    1.6423    0.7951 H   0  0  0  0  0  0  0  0  0  0  0  0
   -4.4421   -0.5210   -1.6334 H   0  0  0  0  0  0  0  0  0  0  0  0
   -4.5654    1.2975   -1.6664 H   0  0  0  0  0  0  0  0  0  0  0  0
   -6.6946    0.2268   -2.2288 H   0  0  0  0  0  0  0  0  0  0  0  0
   -6.6456    2.2578   -0.7595 H   0  0  0  0  0  0  0  0  0  0  0  0
   -8.1215    1.2932   -0.5069 H   0  0  0  0  0  0  0  0  0  0  0  0
   -7.1429    1.9304    1.6434 H   0  0  0  0  0  0  0  0  0  0  0  0
   -7.9284   -0.3967    1.6510 H   0  0  0  0  0  0  0  0  0  0  0  0
   -6.3819   -0.2013    2.6472 H   0  0  0  0  0  0  0  0  0  0  0  0
   -6.3363   -2.2223    1.2778 H   0  0  0  0  0  0  0  0  0  0  0  0
   -7.7091   -1.4054   -0.5915 H   0  0  0  0  0  0  0  0  0  0  0  0
   -6.1259   -1.9050   -1.2582 H   0  0  0  0  0  0  0  0  0  0  0  0
   -4.0978   -1.7393    0.3556 H   0  0  0  0  0  0  0  0  0  0  0  0
   -4.3880   -0.9324    1.9873 H   0  0  0  0  0  0  0  0  0  0  0  0
   -4.8564    2.4210    0.6879 H   0  0  0  0  0  0  0  0  0  0  0  0
   -4.7189    1.3535    2.1349 H   0  0  0  0  0  0  0  0  0  0  0  0
  1  2  2  0
  2  3  1  0
  3  4  1  0
  4  5  1  0
  5  6  1  0
  6  7  1  0
  7  8  1  0
  8  9  1  0
  9 10  1  0
 10 11  1  0
 10 12  1  0
 12 13  1  0
 12 14  1  0
 14 15  1  0
 14 16  1  0
 16 17  1  0
 17 18  1  0
  2 19  1  0
 19 20  1  0
 20 21  1  0
 21 22  1  0
 22 23  1  0
 23 24  1  0
 24 25  1  0
 25 26  1  0
 26 27  1  0
 26 28  1  0
 24 29  1  0
 16  8  1  0
 28 20  1  0
 29 20  1  0
 27 22  1  0
  3 30  1  0
  3 31  1  0
  4 32  1  0
  4 33  1  0
  5 34  1  0
  5 35  1  0
  6 36  1  0
  6 37  1  0
  7 38  1  0
  7 39  1  0
  9 40  1  0
  9 41  1  0
 10 42  1  6
 11 43  1  0
 12 44  1  1
 13 45  1  0
 14 46  1  1
 15 47  1  0
 16 48  1  6
 17 49  1  0
 17 50  1  0
 18 51  1  0
 19 52  1  0
 21 53  1  0
 21 54  1  0
 22 55  1  0
 23 56  1  0
 23 57  1  0
 24 58  1  0
 25 59  1  0
 25 60  1  0
 26 61  1  0
 27 62  1  0
 27 63  1  0
 28 64  1  0
 28 65  1  0
 29 66  1  0
 29 67  1  0
M  END
$$$$
