@<TRIPOS>MOLECULE
*****
 29 30 0 0 0
SMALL
GASTEIGER

@<TRIPOS>ATOM
      1 C          -5.4395    0.0936   -0.0502 C.3     1  UNL1       -0.0135
      2 S          -4.6120   -1.4956    0.2248 S.3     1  UNL1       -0.1286
      3 C          -2.8642   -1.2619   -0.1872 C.ar    1  UNL1        0.0077
      4 C          -2.0556   -0.8227    0.8542 C.ar    1  UNL1       -0.0477
      5 C          -0.6961   -0.6144    0.6187 C.ar    1  UNL1       -0.0498
      6 C          -0.1196   -0.8335   -0.6383 C.ar    1  UNL1        0.0239
      7 C          -0.9814   -1.2670   -1.6148 C.ar    1  UNL1       -0.0498
      8 C          -2.3261   -1.4894   -1.4392 C.ar    1  UNL1       -0.0477
      9 C           1.2967   -0.5510   -0.8151 C.2     1  UNL1        0.2110
     10 O           1.8915   -1.2265   -1.6742 O.2     1  UNL1       -0.2850
     11 C           2.0112    0.4618   -0.0442 C.ar    1  UNL1        0.1101
     12 C           3.3450    0.6572    0.1320 C.ar    1  UNL1        0.0445
     13 C           4.4238   -0.1801   -0.4078 C.3     1  UNL1       -0.0222
     14 N           3.5872    1.7475    0.8888 N.ar    1  UNL1       -0.3099
     15 C           2.3770    2.2835    1.2195 C.ar    1  UNL1        0.3248
     16 O           2.3155    3.3110    1.9246 O.2     1  UNL1       -0.2468
     17 N           1.4508    1.4903    0.6448 N.ar    1  UNL1       -0.3033
     18 H          -4.8660    0.6432   -0.8231 H       1  UNL1        0.0344
     19 H          -6.5027   -0.0452   -0.3154 H       1  UNL1        0.0344
     20 H          -5.3394    0.6526    0.9269 H       1  UNL1        0.0344
     21 H          -2.4839   -0.6410    1.8534 H       1  UNL1        0.0629
     22 H          -0.1561   -0.2964    1.4866 H       1  UNL1        0.0625
     23 H          -0.5480   -1.4428   -2.5941 H       1  UNL1        0.0625
     24 H          -2.9922   -1.8312   -2.2163 H       1  UNL1        0.0629
     25 H           5.1672   -0.4719    0.3806 H       1  UNL1        0.0292
     26 H           4.0743   -1.1142   -0.8450 H       1  UNL1        0.0292
     27 H           5.0207    0.3428   -1.2076 H       1  UNL1        0.0292
     28 H           4.5401    2.1107    1.1696 H       1  UNL1        0.1701
     29 H           0.4818    1.7906    0.8061 H       1  UNL1        0.1705
@<TRIPOS>BOND
     1     1     2    1
     2     2     3    1
     3     3     4   ar
     4     4     5   ar
     5     5     6   ar
     6     6     7   ar
     7     7     8   ar
     8     6     9    1
     9     9    10    2
    10     9    11    1
    11    11    12   ar
    12    12    13    1
    13    12    14   ar
    14    14    15   ar
    15    15    16    2
    16    15    17   ar
    17     8     3   ar
    18    17    11   ar
    19     1    18    1
    20     1    19    1
    21     1    20    1
    22     4    21    1
    23     5    22    1
    24     7    23    1
    25     8    24    1
    26    13    25    1
    27    13    26    1
    28    13    27    1
    29    14    28    1
    30    17    29    1
