@<TRIPOS>MOLECULE
*****
 47 49 0 0 0
SMALL
GASTEIGER

@<TRIPOS>ATOM
      1 N          -6.6744    2.6515    0.7367 N.pl3   1  UNL1       -0.3289
      2 C          -6.2921    1.4830    0.0104 C.ar    1  UNL1        0.1950
      3 N          -4.9991    1.1135    0.0482 N.ar    1  UNL1       -0.1963
      4 C          -4.5290    0.0308   -0.5983 C.ar    1  UNL1        0.1711
      5 C          -5.4626   -0.6795   -1.3057 C.ar    1  UNL1        0.1721
      6 N          -4.8356   -1.7216   -1.8882 N.ar    1  UNL1       -0.2286
      7 C          -3.5232   -1.6545   -1.5420 C.ar    1  UNL1        0.1004
      8 N          -3.3228   -0.5774   -0.7465 N.ar    1  UNL1       -0.2878
      9 C          -2.1770   -0.0214   -0.0979 C.3     1  UNL1        0.1408
     10 C          -2.1040   -0.3199    1.3717 C.3     1  UNL1        0.0213
     11 C          -0.6124   -0.1538    1.6348 C.3     1  UNL1        0.0877
     12 O          -0.4645    0.9166    2.4949 O.3     1  UNL1       -0.3890
     13 C          -0.0705    0.1191    0.2588 C.3     1  UNL1        0.1108
     14 C           1.3428   -0.3577    0.0827 C.3     1  UNL1        0.0878
     15 O           1.5002   -1.6911    0.3754 O.3     1  UNL1       -0.2837
     16 P           3.1136   -2.1442    0.1522 P.3     1  UNL1        0.4835
     17 O           3.8669   -2.2400    1.6456 O.3     1  UNL1       -0.3022
     18 O           3.1117   -3.4891   -0.5375 O.2     1  UNL1       -0.2269
     19 O           3.9370   -1.0483   -0.8328 O.3     1  UNL1       -0.1858
     20 P           5.3871   -0.5466   -0.1360 P.3     1  UNL1        0.4918
     21 O           5.2641    1.0523    0.4407 O.3     1  UNL1       -0.3019
     22 O           5.7782   -1.4095    1.0406 O.2     1  UNL1       -0.2265
     23 O           6.6542   -0.6000   -1.2604 O.3     1  UNL1       -0.1859
     24 P           7.8238    0.5831   -0.9647 P.3     1  UNL1        0.4808
     25 O           7.7885    1.6823   -2.2512 O.3     1  UNL1       -0.3023
     26 O           9.3683   -0.0798   -0.8174 O.3     1  UNL1       -0.3023
     27 O           7.5402    1.3439    0.3099 O.2     1  UNL1       -0.2271
     28 O          -0.9779   -0.5564   -0.5558 O.3     1  UNL1       -0.3484
     29 C          -6.8023   -0.2963   -1.3446 C.ar    1  UNL1        0.2803
     30 O          -7.6312   -0.9961   -2.0209 O.2     1  UNL1       -0.2654
     31 N          -7.2248    0.8005   -0.6775 N.ar    1  UNL1       -0.2934
     32 H          -6.0479    3.4755    0.8825 H       1  UNL1        0.1451
     33 H          -7.6057    2.8016    1.1906 H       1  UNL1        0.1451
     34 H          -2.7050   -2.2971   -1.8026 H       1  UNL1        0.1030
     35 H          -2.1438    1.0723   -0.2470 H       1  UNL1        0.0840
     36 H          -2.7193    0.4166    1.9108 H       1  UNL1        0.0335
     37 H          -2.4570   -1.3316    1.6452 H       1  UNL1        0.0335
     38 H          -0.2160   -1.0509    2.1137 H       1  UNL1        0.0621
     39 H          -0.8056    1.7451    2.0448 H       1  UNL1        0.2099
     40 H          -0.1194    1.1970    0.0874 H       1  UNL1        0.0646
     41 H           1.9786    0.2964    0.7045 H       1  UNL1        0.0592
     42 H           1.6115   -0.1754   -0.9873 H       1  UNL1        0.0592
     43 H           3.3858   -1.7076    2.3217 H       1  UNL1        0.2220
     44 H           4.3603    1.3887    0.2728 H       1  UNL1        0.2220
     45 H           7.0098    1.5217   -2.8422 H       1  UNL1        0.2220
     46 H           9.9274    0.3525   -0.1360 H       1  UNL1        0.2220
     47 H          -8.2268    1.1017   -0.6965 H       1  UNL1        0.1716
@<TRIPOS>BOND
     1     1     2    1
     2     2     3   ar
     3     3     4   ar
     4     4     5   ar
     5     5     6   ar
     6     6     7   ar
     7     7     8   ar
     8     8     9    1
     9     9    10    1
    10    10    11    1
    11    11    12    1
    12    11    13    1
    13    13    14    1
    14    14    15    1
    15    15    16    1
    16    16    17    1
    17    16    18    2
    18    16    19    1
    19    19    20    1
    20    20    21    1
    21    20    22    2
    22    20    23    1
    23    23    24    1
    24    24    25    1
    25    24    26    1
    26    24    27    2
    27    13    28    1
    28     5    29   ar
    29    29    30    2
    30    29    31   ar
    31    31     2   ar
    32     8     4   ar
    33    28     9    1
    34     1    32    1
    35     1    33    1
    36     7    34    1
    37     9    35    1
    38    10    36    1
    39    10    37    1
    40    11    38    1
    41    12    39    1
    42    13    40    1
    43    14    41    1
    44    14    42    1
    45    17    43    1
    46    21    44    1
    47    25    45    1
    48    26    46    1
    49    31    47    1
