@<TRIPOS>MOLECULE
*****
 32 34 0 0 0
SMALL
GASTEIGER

@<TRIPOS>ATOM
      1 O          -4.8145    1.9463   -1.9375 O.3     1  UNL1       -0.5065
      2 C          -3.9939    1.1549   -1.1152 C.ar    1  UNL1        0.1239
      3 C          -2.6154    1.2279   -1.2616 C.ar    1  UNL1        0.0231
      4 C          -1.8327    0.4257   -0.4256 C.ar    1  UNL1        0.1465
      5 C          -2.4655   -0.3773    0.4798 C.ar    1  UNL1        0.1092
      6 C          -3.8304   -0.4446    0.6192 C.ar    1  UNL1        0.1348
      7 O          -4.3595   -1.3004    1.5771 O.3     1  UNL1       -0.5058
      8 C          -4.6320    0.3378   -0.1942 C.ar    1  UNL1        0.0223
      9 C          -1.5980   -1.1230    1.2500 C.ar    1  UNL1        0.2379
     10 O          -2.0469   -1.9113    2.1305 O.2     1  UNL1       -0.2830
     11 C          -0.2472   -0.9795    1.0283 C.ar    1  UNL1        0.2082
     12 O           0.5693   -1.7542    1.8326 O.3     1  UNL1       -0.5007
     13 C           0.3342   -0.1690    0.1172 C.ar    1  UNL1        0.1807
     14 O          -0.5369    0.5195   -0.5906 O.2     1  UNL1       -0.4507
     15 C           1.7360    0.0274   -0.1648 C.ar    1  UNL1        0.0247
     16 C           2.0747    0.9270   -1.1616 C.ar    1  UNL1       -0.0473
     17 C           3.3724    1.2079   -1.5306 C.ar    1  UNL1       -0.0159
     18 C           4.4226    0.5798   -0.8969 C.ar    1  UNL1        0.1583
     19 O           5.7201    0.8687   -1.2746 O.3     1  UNL1       -0.5033
     20 C           4.1335   -0.3107    0.0876 C.ar    1  UNL1        0.1589
     21 O           5.1647   -0.9613    0.7468 O.3     1  UNL1       -0.5033
     22 C           2.8207   -0.5500    0.4120 C.ar    1  UNL1       -0.0057
     23 H          -4.9519    1.5968   -2.8977 H       1  UNL1        0.2921
     24 H          -2.1670    1.8763   -1.9896 H       1  UNL1        0.0691
     25 H          -4.7233   -2.1760    1.2797 H       1  UNL1        0.2922
     26 H          -5.7085    0.3039   -0.1050 H       1  UNL1        0.0691
     27 H           0.3752   -2.7118    2.0395 H       1  UNL1        0.2924
     28 H           1.3239    1.4829   -1.7312 H       1  UNL1        0.0626
     29 H           3.6060    1.9141   -2.3116 H       1  UNL1        0.0655
     30 H           6.4043    1.2033   -0.6220 H       1  UNL1        0.2923
     31 H           5.8096   -1.5670    0.2764 H       1  UNL1        0.2923
     32 H           2.6565   -1.2642    1.1985 H       1  UNL1        0.0662
@<TRIPOS>BOND
     1     1     2    1
     2     2     3   ar
     3     3     4   ar
     4     4     5   ar
     5     5     6   ar
     6     6     7    1
     7     6     8   ar
     8     5     9   ar
     9     9    10    2
    10     9    11   ar
    11    11    12    1
    12    11    13   ar
    13    13    14   ar
    14    13    15    1
    15    15    16   ar
    16    16    17   ar
    17    17    18   ar
    18    18    19    1
    19    18    20   ar
    20    20    21    1
    21    20    22   ar
    22     8     2   ar
    23    22    15   ar
    24    14     4   ar
    25     1    23    1
    26     3    24    1
    27     7    25    1
    28     8    26    1
    29    12    27    1
    30    16    28    1
    31    17    29    1
    32    19    30    1
    33    21    31    1
    34    22    32    1
