@<TRIPOS>MOLECULE
*****
 53 55 0 0 0
SMALL
GASTEIGER

@<TRIPOS>ATOM
      1 C          -0.1093   -0.1464   -1.3741 C.3     1  UNL1       -0.0240
      2 C          -0.8256   -0.3949   -0.0857 C.ar    1  UNL1        0.0228
      3 C          -2.0782    0.2548    0.0233 C.ar    1  UNL1        0.0006
      4 C          -2.8613    0.1159    1.1351 C.ar    1  UNL1        0.1418
      5 O          -4.0394    0.6715    1.3436 O.3     1  UNL1       -0.4859
      6 C          -5.0444    1.4361    0.9552 C.3     1  UNL1        0.1173
      7 C          -5.7957    1.0817   -0.2634 C.ar    1  UNL1        0.0250
      8 C          -6.9347    0.2957   -0.1019 C.ar    1  UNL1       -0.0499
      9 C          -7.6764   -0.1279   -1.1726 C.ar    1  UNL1       -0.0259
     10 C          -7.3130    0.2158   -2.4626 C.ar    1  UNL1        0.1261
     11 F          -8.0542   -0.2126   -3.4964 F       1  UNL1       -0.2054
     12 C          -6.1874    0.9936   -2.6218 C.ar    1  UNL1        0.0092
     13 C          -5.4265    1.4294   -1.5279 C.ar    1  UNL1        0.1325
     14 F          -4.3612    2.2184   -1.7579 F       1  UNL1       -0.2050
     15 C          -2.3229   -0.7082    2.1331 C.ar    1  UNL1        0.1238
     16 BR         -3.3392   -0.9606    3.7140 Br      1  UNL1       -0.0409
     17 C          -1.1090   -1.3244    2.0021 C.ar    1  UNL1        0.2694
     18 O          -0.6225   -2.0668    2.8946 O.2     1  UNL1       -0.2663
     19 N          -0.3555   -1.1663    0.8856 N.ar    1  UNL1       -0.3072
     20 C           0.8985   -1.8347    0.7821 C.3     1  UNL1        0.0514
     21 C           2.0768   -1.1601    1.3059 C.ar    1  UNL1       -0.0274
     22 C           2.5203   -1.4283    2.5821 C.ar    1  UNL1       -0.0569
     23 C           3.6472   -0.7876    3.0910 C.ar    1  UNL1       -0.0611
     24 C           4.3502    0.1263    2.3436 C.ar    1  UNL1       -0.0571
     25 C           3.9199    0.4124    1.0506 C.ar    1  UNL1       -0.0300
     26 C           4.6798    1.4097    0.2520 C.3     1  UNL1        0.0369
     27 N           5.7600    0.8526   -0.5121 N.am    1  UNL1       -0.3093
     28 C           5.6121    0.1522   -1.7268 C.2     1  UNL1        0.2388
     29 O           4.5014   -0.0385   -2.2404 O.2     1  UNL1       -0.2733
     30 C           6.7904   -0.4030   -2.4710 C.3     1  UNL1        0.1202
     31 O           7.9627   -0.1244   -1.7956 O.3     1  UNL1       -0.3858
     32 C           2.7840   -0.2479    0.5683 C.ar    1  UNL1       -0.0522
     33 H           0.6319   -0.9253   -1.5591 H       1  UNL1        0.0292
     34 H          -0.8412   -0.2011   -2.2180 H       1  UNL1        0.0292
     35 H           0.3751    0.8588   -1.3456 H       1  UNL1        0.0292
     36 H          -2.4154    0.8730   -0.7913 H       1  UNL1        0.0672
     37 H          -5.8058    1.5161    1.7904 H       1  UNL1        0.0749
     38 H          -4.7651    2.5443    0.7981 H       1  UNL1        0.0749
     39 H          -7.2385    0.0152    0.8957 H       1  UNL1        0.0623
     40 H          -8.5542   -0.7378   -0.9962 H       1  UNL1        0.0646
     41 H          -5.8861    1.2730   -3.6153 H       1  UNL1        0.0675
     42 H           1.0000   -2.2431   -0.2476 H       1  UNL1        0.0542
     43 H           0.7954   -2.8219    1.3877 H       1  UNL1        0.0542
     44 H           2.0393   -2.1386    3.2487 H       1  UNL1        0.0621
     45 H           3.9902   -1.0115    4.1111 H       1  UNL1        0.0618
     46 H           5.2231    0.6231    2.7388 H       1  UNL1        0.0621
     47 H           3.9249    1.8494   -0.4618 H       1  UNL1        0.0512
     48 H           5.0052    2.2557    0.8916 H       1  UNL1        0.0512
     49 H           6.7464    0.9590   -0.1624 H       1  UNL1        0.1491
     50 H           6.6937   -1.4928   -2.5932 H       1  UNL1        0.0654
     51 H           6.8110    0.1105   -3.4565 H       1  UNL1        0.0654
     52 H           8.7153    0.1473   -2.3694 H       1  UNL1        0.2100
     53 H           2.5078    0.0133   -0.4246 H       1  UNL1        0.0624
@<TRIPOS>BOND
     1     1     2    1
     2     2     3   ar
     3     3     4   ar
     4     4     5    1
     5     5     6    1
     6     6     7    1
     7     7     8   ar
     8     8     9   ar
     9     9    10   ar
    10    10    11    1
    11    10    12   ar
    12    12    13   ar
    13    13    14    1
    14     4    15   ar
    15    15    16    1
    16    15    17   ar
    17    17    18    2
    18    17    19   ar
    19    19    20    1
    20    20    21    1
    21    21    22   ar
    22    22    23   ar
    23    23    24   ar
    24    24    25   ar
    25    25    26    1
    26    26    27    1
    27    27    28   am
    28    28    29    2
    29    28    30    1
    30    30    31    1
    31    25    32   ar
    32    19     2   ar
    33    32    21   ar
    34    13     7   ar
    35     1    33    1
    36     1    34    1
    37     1    35    1
    38     3    36    1
    39     6    37    1
    40     6    38    1
    41     8    39    1
    42     9    40    1
    43    12    41    1
    44    20    42    1
    45    20    43    1
    46    22    44    1
    47    23    45    1
    48    24    46    1
    49    26    47    1
    50    26    48    1
    51    27    49    1
    52    30    50    1
    53    30    51    1
    54    31    52    1
    55    32    53    1
