
     RDKit          3D

 57 61  0  0  0  0  0  0  0  0999 V2000
   -3.9137   -0.7581   -2.4800 C   0  0  0  0  0  0  0  0  0  0  0  0
   -3.0861    0.0994   -3.2911 C   0  0  0  0  0  0  0  0  0  0  0  0
   -3.1216    0.2607   -4.6255 C   0  0  0  0  0  0  0  0  0  0  0  0
   -2.4605    0.9899   -5.4738 C   0  0  0  0  0  0  0  0  0  0  0  0
   -1.4768    1.7974   -4.9089 C   0  0  0  0  0  0  0  0  0  0  0  0
   -1.2413    1.7568   -3.5272 C   0  0  0  0  0  0  0  0  0  0  0  0
   -2.0602    0.9016   -2.7158 C   0  0  0  0  0  0  0  0  0  0  0  0
   -1.5467    0.7737   -1.3652 N   0  0  0  0  0  0  0  0  0  0  0  0
   -0.4694    0.3337   -1.0716 C   0  0  0  0  0  0  0  0  0  0  0  0
    0.2726   -0.7998   -1.9057 C   0  0  0  0  0  0  0  0  0  0  0  0
    1.3283   -1.2214   -1.1196 N   0  0  0  0  0  0  0  0  0  0  0  0
    2.4424   -0.4569   -0.7795 N   0  0  0  0  0  0  0  0  0  0  0  0
    3.0952   -0.8590    0.2454 C   0  0  0  0  0  0  0  0  0  0  0  0
    4.2239   -0.3039    1.1276 C   0  0  0  0  0  0  0  0  0  0  0  0
    4.9990    0.0721    1.7166 C   0  0  0  0  0  0  0  0  0  0  0  0
    6.2078    0.6600    2.6680 C   0  0  0  0  0  0  0  0  0  0  0  0
    5.9382    2.0748    2.5266 O   0  0  0  0  0  0  0  0  0  0  0  0
    2.3002   -2.0159    0.5936 C   0  0  0  0  0  0  0  0  0  0  0  0
    2.5402   -2.7926    1.8621 C   0  0  0  0  0  0  0  0  0  0  0  0
    3.7685   -2.5498    2.5124 N   0  0  0  0  0  0  0  0  0  0  0  0
    1.6899   -3.7759    2.2254 C   0  0  0  0  0  0  0  0  0  0  0  0
    0.4770   -4.0092    1.1879 C   0  0  0  0  0  0  0  0  0  0  0  0
    0.5251   -3.2012    0.2438 C   0  0  0  0  0  0  0  0  0  0  0  0
    1.3554   -2.2231   -0.1015 C   0  0  0  0  0  0  0  0  0  0  0  0
    0.3274    0.3898    0.1105 N   0  0  0  0  0  0  0  0  0  0  0  0
   -0.2705    1.0513    1.0511 C   0  0  0  0  0  0  0  0  0  0  0  0
    0.1040    1.2987    2.2796 C   0  0  0  0  0  0  0  0  0  0  0  0
   -0.5144    1.9341    3.4138 C   0  0  0  0  0  0  0  0  0  0  0  0
   -1.6951    2.3038    3.0986 C   0  0  0  0  0  0  0  0  0  0  0  0
   -2.2952    2.1825    1.8818 C   0  0  0  0  0  0  0  0  0  0  0  0
   -3.8035    2.3397    1.7092 C   0  0  0  0  0  0  0  0  0  0  0  0
   -1.6977    1.6395    0.8044 C   0  0  0  0  0  0  0  0  0  0  0  0
   -2.3109    1.5243   -0.3931 C   0  0  0  0  0  0  0  0  0  0  0  0
   -3.3980    2.0646   -0.6393 O   0  0  0  0  0  0  0  0  0  0  0  0
   -4.9672   -0.3447   -2.3707 H   0  0  0  0  0  0  0  0  0  0  0  0
   -4.0632   -1.7711   -2.9629 H   0  0  0  0  0  0  0  0  0  0  0  0
   -3.4583   -1.0252   -1.4792 H   0  0  0  0  0  0  0  0  0  0  0  0
   -3.9129   -0.4686   -5.1133 H   0  0  0  0  0  0  0  0  0  0  0  0
   -2.6082    1.0533   -6.5427 H   0  0  0  0  0  0  0  0  0  0  0  0
   -0.8316    2.4979   -5.4738 H   0  0  0  0  0  0  0  0  0  0  0  0
   -0.4459    2.3246   -3.1093 H   0  0  0  0  0  0  0  0  0  0  0  0
   -0.5471   -1.6711   -1.8088 H   0  0  0  0  0  0  0  0  0  0  0  0
    0.2628   -0.5492   -2.8686 H   0  0  0  0  0  0  0  0  0  0  0  0
    5.7762    0.4073    3.6783 H   0  0  0  0  0  0  0  0  0  0  0  0
    7.0761    0.2643    2.3860 H   0  0  0  0  0  0  0  0  0  0  0  0
    5.8457    2.5421    3.4103 H   0  0  0  0  0  0  0  0  0  0  0  0
    4.6390   -2.8880    1.9917 H   0  0  0  0  0  0  0  0  0  0  0  0
    3.8180   -2.1340    3.4332 H   0  0  0  0  0  0  0  0  0  0  0  0
    1.6334   -4.4515    2.9626 H   0  0  0  0  0  0  0  0  0  0  0  0
   -0.0822   -4.7820    1.5490 H   0  0  0  0  0  0  0  0  0  0  0  0
   -0.3875   -3.2508   -0.5225 H   0  0  0  0  0  0  0  0  0  0  0  0
    1.1639    1.0239    2.5204 H   0  0  0  0  0  0  0  0  0  0  0  0
   -0.0638    2.1277    4.3507 H   0  0  0  0  0  0  0  0  0  0  0  0
   -2.4881    2.7408    3.8476 H   0  0  0  0  0  0  0  0  0  0  0  0
   -4.2708    2.0945    2.7372 H   0  0  0  0  0  0  0  0  0  0  0  0
   -4.1005    3.3285    1.4184 H   0  0  0  0  0  0  0  0  0  0  0  0
   -4.2212    1.4495    1.1060 H   0  0  0  0  0  0  0  0  0  0  0  0
  1  2  1  0
  2  3  2  0
  3  4  1  0
  4  5  2  0
  5  6  1  0
  6  7  2  0
  7  8  1  0
  8  9  1  0
  9 10  1  0
 10 11  1  0
 11 12  1  0
 12 13  2  0
 13 14  1  0
 14 15  3  0
 15 16  1  0
 16 17  1  0
 13 18  1  0
 18 19  2  0
 19 20  1  0
 19 21  1  0
 21 22  2  0
 22 23  1  0
 23 24  2  0
  9 25  2  0
 25 26  1  0
 26 27  2  0
 27 28  1  0
 28 29  2  0
 29 30  1  0
 30 31  1  0
 30 32  2  0
 32 33  1  0
 33 34  2  0
  7  2  1  0
 33  8  1  0
 24 11  1  0
 32 26  1  0
 24 18  1  0
  1 35  1  0
  1 36  1  0
  1 37  1  0
  3 38  1  0
  4 39  1  0
  5 40  1  0
  6 41  1  0
 10 42  1  0
 10 43  1  0
 16 44  1  0
 16 45  1  0
 17 46  1  0
 20 47  1  0
 20 48  1  0
 21 49  1  0
 22 50  1  0
 23 51  1  0
 27 52  1  0
 28 53  1  0
 29 54  1  0
 31 55  1  0
 31 56  1  0
 31 57  1  0
M  END
$$$$
