@<TRIPOS>MOLECULE
*****
 57 61 0 0 0
SMALL
GASTEIGER

@<TRIPOS>ATOM
      1 C          -3.9137   -0.7581   -2.4800 C.3     1  UNL1       -0.0377
      2 C          -3.0861    0.0994   -3.2911 C.ar    1  UNL1       -0.0265
      3 C          -3.1216    0.2607   -4.6255 C.ar    1  UNL1       -0.0569
      4 C          -2.4605    0.9899   -5.4738 C.ar    1  UNL1       -0.0614
      5 C          -1.4768    1.7974   -4.9089 C.ar    1  UNL1       -0.0598
      6 C          -1.2413    1.7568   -3.5272 C.ar    1  UNL1       -0.0374
      7 C          -2.0602    0.9016   -2.7158 C.ar    1  UNL1        0.0541
      8 N          -1.5467    0.7737   -1.3652 N.ar    1  UNL1       -0.2626
      9 C          -0.4694    0.3337   -1.0716 C.ar    1  UNL1        0.1390
     10 C           0.2726   -0.7998   -1.9057 C.3     1  UNL1        0.1005
     11 N           1.3283   -1.2214   -1.1196 N.ar    1  UNL1       -0.2551
     12 N           2.4424   -0.4569   -0.7795 N.ar    1  UNL1       -0.1612
     13 C           3.0952   -0.8590    0.2454 C.ar    1  UNL1        0.1447
     14 C           4.2239   -0.3039    1.1276 C.1     1  UNL1       -0.0417
     15 C           4.9990    0.0721    1.7166 C.1     1  UNL1       -0.0674
     16 C           6.2078    0.6600    2.6680 C.3     1  UNL1        0.1052
     17 O           5.9382    2.0748    2.5266 O.3     1  UNL1       -0.3825
     18 C           2.3002   -2.0159    0.5936 C.ar    1  UNL1        0.0561
     19 C           2.5402   -2.7926    1.8621 C.ar    1  UNL1        0.0366
     20 N           3.7685   -2.5498    2.5124 N.pl3   1  UNL1       -0.3574
     21 C           1.6899   -3.7759    2.2254 C.ar    1  UNL1       -0.0403
     22 C           0.4770   -4.0092    1.1879 C.ar    1  UNL1       -0.0580
     23 C           0.5251   -3.2012    0.2438 C.ar    1  UNL1       -0.0359
     24 C           1.3554   -2.2231   -0.1015 C.ar    1  UNL1        0.0724
     25 N           0.3274    0.3898    0.1105 N.ar    1  UNL1       -0.2312
     26 C          -0.2705    1.0513    1.0511 C.ar    1  UNL1        0.0785
     27 C           0.1040    1.2987    2.2796 C.ar    1  UNL1       -0.0355
     28 C          -0.5144    1.9341    3.4138 C.ar    1  UNL1       -0.0595
     29 C          -1.6951    2.3038    3.0986 C.ar    1  UNL1       -0.0580
     30 C          -2.2952    2.1825    1.8818 C.ar    1  UNL1       -0.0361
     31 C          -3.8035    2.3397    1.7092 C.3     1  UNL1       -0.0389
     32 C          -1.6977    1.6395    0.8044 C.ar    1  UNL1        0.0681
     33 C          -2.3109    1.5243   -0.3931 C.ar    1  UNL1        0.2666
     34 O          -3.3980    2.0646   -0.6393 O.2     1  UNL1       -0.2666
     35 H          -4.9672   -0.3447   -2.3707 H       1  UNL1        0.0278
     36 H          -4.0632   -1.7711   -2.9629 H       1  UNL1        0.0278
     37 H          -3.4583   -1.0252   -1.4792 H       1  UNL1        0.0278
     38 H          -3.9129   -0.4686   -5.1133 H       1  UNL1        0.0621
     39 H          -2.6082    1.0533   -6.5427 H       1  UNL1        0.0618
     40 H          -0.8316    2.4979   -5.4738 H       1  UNL1        0.0618
     41 H          -0.4459    2.3246   -3.1093 H       1  UNL1        0.0638
     42 H          -0.5471   -1.6711   -1.8088 H       1  UNL1        0.0590
     43 H           0.2628   -0.5492   -2.8686 H       1  UNL1        0.0590
     44 H           5.7762    0.4073    3.6783 H       1  UNL1        0.0695
     45 H           7.0761    0.2643    2.3860 H       1  UNL1        0.0695
     46 H           5.8457    2.5421    3.4103 H       1  UNL1        0.2107
     47 H           4.6390   -2.8880    1.9917 H       1  UNL1        0.1423
     48 H           3.8180   -2.1340    3.4332 H       1  UNL1        0.1423
     49 H           1.6334   -4.4515    2.9626 H       1  UNL1        0.0636
     50 H          -0.0822   -4.7820    1.5490 H       1  UNL1        0.0619
     51 H          -0.3875   -3.2508   -0.5225 H       1  UNL1        0.0639
     52 H           1.1639    1.0239    2.5204 H       1  UNL1        0.0639
     53 H          -0.0638    2.1277    4.3507 H       1  UNL1        0.0618
     54 H          -2.4881    2.7408    3.8476 H       1  UNL1        0.0620
     55 H          -4.2708    2.0945    2.7372 H       1  UNL1        0.0278
     56 H          -4.1005    3.3285    1.4184 H       1  UNL1        0.0278
     57 H          -4.2212    1.4495    1.1060 H       1  UNL1        0.0278
@<TRIPOS>BOND
     1     1     2    1
     2     2     3   ar
     3     3     4   ar
     4     4     5   ar
     5     5     6   ar
     6     6     7   ar
     7     7     8    1
     8     8     9   ar
     9     9    10    1
    10    10    11    1
    11    11    12   ar
    12    12    13   ar
    13    13    14    1
    14    14    15    3
    15    15    16    1
    16    16    17    1
    17    13    18   ar
    18    18    19   ar
    19    19    20    1
    20    19    21   ar
    21    21    22   ar
    22    22    23   ar
    23    23    24   ar
    24     9    25   ar
    25    25    26   ar
    26    26    27   ar
    27    27    28   ar
    28    28    29   ar
    29    29    30   ar
    30    30    31    1
    31    30    32   ar
    32    32    33   ar
    33    33    34    2
    34     7     2   ar
    35    33     8   ar
    36    24    11   ar
    37    32    26   ar
    38    24    18   ar
    39     1    35    1
    40     1    36    1
    41     1    37    1
    42     3    38    1
    43     4    39    1
    44     5    40    1
    45     6    41    1
    46    10    42    1
    47    10    43    1
    48    16    44    1
    49    16    45    1
    50    17    46    1
    51    20    47    1
    52    20    48    1
    53    21    49    1
    54    22    50    1
    55    23    51    1
    56    27    52    1
    57    28    53    1
    58    29    54    1
    59    31    55    1
    60    31    56    1
    61    31    57    1
