
     RDKit          3D

 63 68  0  0  0  0  0  0  0  0999 V2000
   12.6349   -2.3755    0.2116 C   0  0  0  0  0  0  0  0  0  0  0  0
   11.3472   -1.6141    0.2523 C   0  0  0  0  0  0  0  0  0  0  0  0
   10.8117   -1.0871   -0.9016 C   0  0  0  0  0  0  0  0  0  0  0  0
    9.6292   -0.3858   -0.8753 C   0  0  0  0  0  0  0  0  0  0  0  0
    8.9503   -0.1931    0.3089 C   0  0  0  0  0  0  0  0  0  0  0  0
    7.7037    0.5520    0.3044 C   0  0  0  0  0  0  0  0  0  0  0  0
    7.5986    1.8500    0.6540 N   0  0  0  0  0  0  0  0  0  0  0  0
    6.2909    2.2214    0.5334 C   0  0  0  0  0  0  0  0  0  0  0  0
    5.6229    1.1397    0.1116 N   0  0  0  0  0  0  0  0  0  0  0  0
    4.2181    1.0779   -0.1486 C   0  0  0  0  0  0  0  0  0  0  0  0
    3.7474    1.4558   -1.3925 C   0  0  0  0  0  0  0  0  0  0  0  0
    2.4007    1.3974   -1.6442 C   0  0  0  0  0  0  0  0  0  0  0  0
    1.4652    0.9701   -0.6963 C   0  0  0  0  0  0  0  0  0  0  0  0
    0.1252    0.9535   -1.0717 N   0  0  0  0  0  0  0  0  0  0  0  0
   -0.9983    0.5866   -0.2906 C   0  0  0  0  0  0  0  0  0  0  0  0
   -0.8695    0.1991    0.9740 N   0  0  0  0  0  0  0  0  0  0  0  0
   -1.8791   -0.1636    1.7807 C   0  0  0  0  0  0  0  0  0  0  0  0
   -3.1578   -0.1185    1.2125 C   0  0  0  0  0  0  0  0  0  0  0  0
   -3.3419    0.2745   -0.0877 C   0  0  0  0  0  0  0  0  0  0  0  0
   -4.6639    0.3215   -0.6762 C   0  0  0  0  0  0  0  0  0  0  0  0
   -4.7724    0.7330   -2.0105 C   0  0  0  0  0  0  0  0  0  0  0  0
   -6.0009    0.8000   -2.6303 C   0  0  0  0  0  0  0  0  0  0  0  0
   -7.1647    0.4703   -1.9773 C   0  0  0  0  0  0  0  0  0  0  0  0
   -7.0838    0.0617   -0.6612 C   0  0  0  0  0  0  0  0  0  0  0  0
   -8.2650   -0.2800    0.0427 N   0  0  0  0  0  0  0  0  0  0  0  0
   -8.3052   -0.8407    1.3748 C   0  0  0  0  0  0  0  0  0  0  0  0
   -9.4122   -1.8734    1.3739 C   0  0  0  0  0  0  0  0  0  0  0  0
  -10.6390   -1.2503    1.2140 O   0  0  0  0  0  0  0  0  0  0  0  0
  -10.5677   -0.0252    0.5883 C   0  0  0  0  0  0  0  0  0  0  0  0
   -9.5643   -0.0650   -0.5748 C   0  0  0  0  0  0  0  0  0  0  0  0
   -5.8327   -0.0052   -0.0341 C   0  0  0  0  0  0  0  0  0  0  0  0
   -2.2545    0.6133   -0.7932 N   0  0  0  0  0  0  0  0  0  0  0  0
    1.9725    0.6062    0.5182 C   0  0  0  0  0  0  0  0  0  0  0  0
    3.3302    0.6559    0.7984 C   0  0  0  0  0  0  0  0  0  0  0  0
    6.4771    0.1421   -0.0234 N   0  0  0  0  0  0  0  0  0  0  0  0
    9.5209   -0.7357    1.4337 C   0  0  0  0  0  0  0  0  0  0  0  0
   10.6788   -1.4213    1.4014 N   0  0  0  0  0  0  0  0  0  0  0  0
   13.3079   -1.8761   -0.5177 H   0  0  0  0  0  0  0  0  0  0  0  0
   13.0629   -2.3045    1.2301 H   0  0  0  0  0  0  0  0  0  0  0  0
   12.4026   -3.4114   -0.0845 H   0  0  0  0  0  0  0  0  0  0  0  0
   11.3515   -1.2452   -1.8162 H   0  0  0  0  0  0  0  0  0  0  0  0
    9.2118    0.0307   -1.8059 H   0  0  0  0  0  0  0  0  0  0  0  0
    5.9203    3.2162    0.7511 H   0  0  0  0  0  0  0  0  0  0  0  0
    4.4728    1.7866   -2.1253 H   0  0  0  0  0  0  0  0  0  0  0  0
    2.0798    1.7059   -2.6396 H   0  0  0  0  0  0  0  0  0  0  0  0
   -0.1524    1.2485   -2.0763 H   0  0  0  0  0  0  0  0  0  0  0  0
   -1.6723   -0.4596    2.7828 H   0  0  0  0  0  0  0  0  0  0  0  0
   -3.9607   -0.4105    1.8654 H   0  0  0  0  0  0  0  0  0  0  0  0
   -3.8553    0.9979   -2.5413 H   0  0  0  0  0  0  0  0  0  0  0  0
   -6.0849    1.1157   -3.6539 H   0  0  0  0  0  0  0  0  0  0  0  0
   -8.1391    0.5135   -2.4436 H   0  0  0  0  0  0  0  0  0  0  0  0
   -7.3651   -1.2169    1.7606 H   0  0  0  0  0  0  0  0  0  0  0  0
   -8.6308   -0.0201    2.0770 H   0  0  0  0  0  0  0  0  0  0  0  0
   -9.3812   -2.5353    2.2633 H   0  0  0  0  0  0  0  0  0  0  0  0
   -9.2833   -2.5252    0.4610 H   0  0  0  0  0  0  0  0  0  0  0  0
  -10.3083    0.8092    1.2681 H   0  0  0  0  0  0  0  0  0  0  0  0
  -11.5655    0.1774    0.1321 H   0  0  0  0  0  0  0  0  0  0  0  0
   -9.5510    0.9358   -1.0593 H   0  0  0  0  0  0  0  0  0  0  0  0
   -9.8731   -0.8809   -1.2257 H   0  0  0  0  0  0  0  0  0  0  0  0
   -5.7466   -0.3185    0.9883 H   0  0  0  0  0  0  0  0  0  0  0  0
    1.3378    0.2628    1.3140 H   0  0  0  0  0  0  0  0  0  0  0  0
    3.6619    0.3589    1.7640 H   0  0  0  0  0  0  0  0  0  0  0  0
    9.0074   -0.6020    2.3978 H   0  0  0  0  0  0  0  0  0  0  0  0
  1  2  1  0
  2  3  2  0
  3  4  1  0
  4  5  2  0
  5  6  1  0
  6  7  1  0
  7  8  2  0
  8  9  1  0
  9 10  1  0
 10 11  2  0
 11 12  1  0
 12 13  2  0
 13 14  1  0
 14 15  1  0
 15 16  2  0
 16 17  1  0
 17 18  2  0
 18 19  1  0
 19 20  1  0
 20 21  2  0
 21 22  1  0
 22 23  2  0
 23 24  1  0
 24 25  1  0
 25 26  1  0
 26 27  1  0
 27 28  1  0
 28 29  1  0
 29 30  1  0
 24 31  2  0
 19 32  2  0
 13 33  1  0
 33 34  2  0
  9 35  1  0
  5 36  1  0
 36 37  2  0
 37  2  1  0
 35  6  2  0
 34 10  1  0
 32 15  1  0
 31 20  1  0
 30 25  1  0
  1 38  1  0
  1 39  1  0
  1 40  1  0
  3 41  1  0
  4 42  1  0
  8 43  1  0
 11 44  1  0
 12 45  1  0
 14 46  1  0
 17 47  1  0
 18 48  1  0
 21 49  1  0
 22 50  1  0
 23 51  1  0
 26 52  1  0
 26 53  1  0
 27 54  1  0
 27 55  1  0
 29 56  1  0
 29 57  1  0
 30 58  1  0
 30 59  1  0
 31 60  1  0
 33 61  1  0
 34 62  1  0
 36 63  1  0
M  END
$$$$
