@<TRIPOS>MOLECULE
*****
 63 68 0 0 0
SMALL
GASTEIGER

@<TRIPOS>ATOM
      1 C          12.6349   -2.3755    0.2116 C.3     1  UNL1       -0.0224
      2 C          11.3472   -1.6141    0.2523 C.ar    1  UNL1        0.0382
      3 C          10.8117   -1.0871   -0.9016 C.ar    1  UNL1       -0.0400
      4 C           9.6292   -0.3858   -0.8753 C.ar    1  UNL1       -0.0478
      5 C           8.9503   -0.1931    0.3089 C.ar    1  UNL1        0.0390
      6 C           7.7037    0.5520    0.3044 C.ar    1  UNL1        0.1831
      7 N           7.5986    1.8500    0.6540 N.ar    1  UNL1       -0.2143
      8 C           6.2909    2.2214    0.5334 C.ar    1  UNL1        0.1205
      9 N           5.6229    1.1397    0.1116 N.ar    1  UNL1       -0.2197
     10 C           4.2181    1.0779   -0.1486 C.ar    1  UNL1        0.0672
     11 C           3.7474    1.4558   -1.3925 C.ar    1  UNL1       -0.0345
     12 C           2.4007    1.3974   -1.6442 C.ar    1  UNL1       -0.0385
     13 C           1.4652    0.9701   -0.6963 C.ar    1  UNL1        0.0337
     14 N           0.1252    0.9535   -1.0717 N.pl3   1  UNL1       -0.2836
     15 C          -0.9983    0.5866   -0.2906 C.ar    1  UNL1        0.2200
     16 N          -0.8695    0.1991    0.9740 N.ar    1  UNL1       -0.2226
     17 C          -1.8791   -0.1636    1.7807 C.ar    1  UNL1        0.0332
     18 C          -3.1578   -0.1185    1.2125 C.ar    1  UNL1       -0.0174
     19 C          -3.3419    0.2745   -0.0877 C.ar    1  UNL1        0.0761
     20 C          -4.6639    0.3215   -0.6762 C.ar    1  UNL1        0.0023
     21 C          -4.7724    0.7330   -2.0105 C.ar    1  UNL1       -0.0524
     22 C          -6.0009    0.8000   -2.6303 C.ar    1  UNL1       -0.0594
     23 C          -7.1647    0.4703   -1.9773 C.ar    1  UNL1       -0.0406
     24 C          -7.0838    0.0617   -0.6612 C.ar    1  UNL1        0.0304
     25 N          -8.2650   -0.2800    0.0427 N.pl3   1  UNL1       -0.3255
     26 C          -8.3052   -0.8407    1.3748 C.3     1  UNL1        0.0357
     27 C          -9.4122   -1.8734    1.3739 C.3     1  UNL1        0.0634
     28 O         -10.6390   -1.2503    1.2140 O.3     1  UNL1       -0.3767
     29 C         -10.5677   -0.0252    0.5883 C.3     1  UNL1        0.0634
     30 C          -9.5643   -0.0650   -0.5748 C.3     1  UNL1        0.0357
     31 C          -5.8327   -0.0052   -0.0341 C.ar    1  UNL1       -0.0315
     32 N          -2.2545    0.6133   -0.7932 N.ar    1  UNL1       -0.2142
     33 C           1.9725    0.6062    0.5182 C.ar    1  UNL1       -0.0385
     34 C           3.3302    0.6559    0.7984 C.ar    1  UNL1       -0.0345
     35 N           6.4771    0.1421   -0.0234 N.ar    1  UNL1       -0.1448
     36 C           9.5209   -0.7357    1.4337 C.ar    1  UNL1        0.0386
     37 N          10.6788   -1.4213    1.4014 N.ar    1  UNL1       -0.2595
     38 H          13.3079   -1.8761   -0.5177 H       1  UNL1        0.0292
     39 H          13.0629   -2.3045    1.2301 H       1  UNL1        0.0292
     40 H          12.4026   -3.4114   -0.0845 H       1  UNL1        0.0292
     41 H          11.3515   -1.2452   -1.8162 H       1  UNL1        0.0636
     42 H           9.2118    0.0307   -1.8059 H       1  UNL1        0.0626
     43 H           5.9203    3.2162    0.7511 H       1  UNL1        0.1048
     44 H           4.4728    1.7866   -2.1253 H       1  UNL1        0.0639
     45 H           2.0798    1.7059   -2.6396 H       1  UNL1        0.0637
     46 H          -0.1524    1.2485   -2.0763 H       1  UNL1        0.1550
     47 H          -1.6723   -0.4596    2.7828 H       1  UNL1        0.0831
     48 H          -3.9607   -0.4105    1.8654 H       1  UNL1        0.0654
     49 H          -3.8553    0.9979   -2.5413 H       1  UNL1        0.0624
     50 H          -6.0849    1.1157   -3.6539 H       1  UNL1        0.0618
     51 H          -8.1391    0.5135   -2.4436 H       1  UNL1        0.0636
     52 H          -7.3651   -1.2169    1.7606 H       1  UNL1        0.0486
     53 H          -8.6308   -0.0201    2.0770 H       1  UNL1        0.0486
     54 H          -9.3812   -2.5353    2.2633 H       1  UNL1        0.0575
     55 H          -9.2833   -2.5252    0.4610 H       1  UNL1        0.0575
     56 H         -10.3083    0.8092    1.2681 H       1  UNL1        0.0575
     57 H         -11.5655    0.1774    0.1321 H       1  UNL1        0.0575
     58 H          -9.5510    0.9358   -1.0593 H       1  UNL1        0.0486
     59 H          -9.8731   -0.8809   -1.2257 H       1  UNL1        0.0486
     60 H          -5.7466   -0.3185    0.9883 H       1  UNL1        0.0643
     61 H           1.3378    0.2628    1.3140 H       1  UNL1        0.0637
     62 H           3.6619    0.3589    1.7640 H       1  UNL1        0.0639
     63 H           9.0074   -0.6020    2.3978 H       1  UNL1        0.0837
@<TRIPOS>BOND
     1     1     2    1
     2     2     3   ar
     3     3     4   ar
     4     4     5   ar
     5     5     6    1
     6     6     7   ar
     7     7     8   ar
     8     8     9   ar
     9     9    10    1
    10    10    11   ar
    11    11    12   ar
    12    12    13   ar
    13    13    14    1
    14    14    15    1
    15    15    16   ar
    16    16    17   ar
    17    17    18   ar
    18    18    19   ar
    19    19    20    1
    20    20    21   ar
    21    21    22   ar
    22    22    23   ar
    23    23    24   ar
    24    24    25    1
    25    25    26    1
    26    26    27    1
    27    27    28    1
    28    28    29    1
    29    29    30    1
    30    24    31   ar
    31    19    32   ar
    32    13    33   ar
    33    33    34   ar
    34     9    35   ar
    35     5    36   ar
    36    36    37   ar
    37    37     2   ar
    38    35     6   ar
    39    34    10   ar
    40    32    15   ar
    41    31    20   ar
    42    30    25    1
    43     1    38    1
    44     1    39    1
    45     1    40    1
    46     3    41    1
    47     4    42    1
    48     8    43    1
    49    11    44    1
    50    12    45    1
    51    14    46    1
    52    17    47    1
    53    18    48    1
    54    21    49    1
    55    22    50    1
    56    23    51    1
    57    26    52    1
    58    26    53    1
    59    27    54    1
    60    27    55    1
    61    29    56    1
    62    29    57    1
    63    30    58    1
    64    30    59    1
    65    31    60    1
    66    33    61    1
    67    34    62    1
    68    36    63    1
