
     RDKit          3D

 65 69  0  0  0  0  0  0  0  0999 V2000
    0.0151   -0.2336   -0.8843 C   0  0  2  0  0  0  0  0  0  0  0  0
    0.7858   -0.4977   -2.1284 C   0  0  0  0  0  0  0  0  0  0  0  0
    2.1951   -0.5509   -1.5122 C   0  0  1  0  0  0  0  0  0  0  0  0
    2.5131    0.7340   -1.1305 O   0  0  0  0  0  0  0  0  0  0  0  0
    2.9072    0.7251    0.1766 C   0  0  0  0  0  0  0  0  0  0  0  0
    4.3679    1.1215    0.3492 C   0  0  0  0  0  0  0  0  0  0  0  0
    4.6178    2.5164   -0.1802 C   0  0  0  0  0  0  0  0  0  0  0  0
    4.2918    2.6396   -1.6548 C   0  0  0  0  0  0  0  0  0  0  0  0
    2.6195   -0.4791    0.7620 O   0  0  0  0  0  0  0  0  0  0  0  0
    1.9752   -1.2730   -0.1749 C   0  0  2  0  0  0  0  0  0  0  0  0
    2.6155   -2.6070   -0.3483 C   0  0  0  0  0  0  0  0  0  0  0  0
    2.3833   -3.5783   -1.0868 O   0  0  0  0  0  0  0  0  0  0  0  0
    3.8031   -2.9673    0.4951 C   0  0  0  0  0  0  0  0  0  0  0  0
    4.1441   -1.9438    1.3758 O   0  0  0  0  0  0  0  0  0  0  0  0
    0.4971   -1.3240    0.0445 C   0  0  2  0  0  0  0  0  0  0  0  0
   -0.0453   -2.6836   -0.2697 C   0  0  0  0  0  0  0  0  0  0  0  0
    0.0818   -0.8452    1.4185 C   0  0  0  0  0  0  0  0  0  0  0  0
   -1.3618   -0.5285    1.5221 C   0  0  2  0  0  0  0  0  0  0  0  0
   -2.0940   -1.6732    1.7975 O   0  0  0  0  0  0  0  0  0  0  0  0
   -1.8958    0.3094    0.4078 C   0  0  1  0  0  0  0  0  0  0  0  0
   -1.4510   -0.2944   -0.9277 C   0  0  1  0  0  0  0  0  0  0  0  0
   -2.0787    0.4708   -2.0691 C   0  0  0  0  0  0  0  0  0  0  0  0
   -3.5734    0.2957   -1.8747 C   0  0  0  0  0  0  0  0  0  0  0  0
   -3.9396    1.1503   -0.7347 C   0  0  0  0  0  0  0  0  0  0  0  0
   -4.6625    2.2506   -0.8748 C   0  0  0  0  0  0  0  0  0  0  0  0
   -4.9313    2.9772    0.3621 C   0  0  0  0  0  0  0  0  0  0  0  0
   -5.6001    4.0171    0.3217 O   0  0  0  0  0  0  0  0  0  0  0  0
   -4.4327    2.5123    1.6518 C   0  0  0  0  0  0  0  0  0  0  0  0
   -3.7250    1.3940    1.6250 C   0  0  0  0  0  0  0  0  0  0  0  0
   -3.3633    0.5391    0.4661 C   0  0  2  0  0  0  0  0  0  0  0  0
   -4.1378   -0.7635    0.6872 C   0  0  0  0  0  0  0  0  0  0  0  0
    0.3940    0.7309   -0.4724 H   0  0  0  0  0  0  0  0  0  0  0  0
    0.7534    0.3689   -2.8195 H   0  0  0  0  0  0  0  0  0  0  0  0
    0.5287   -1.3968   -2.6821 H   0  0  0  0  0  0  0  0  0  0  0  0
    2.9246   -1.0360   -2.1542 H   0  0  0  0  0  0  0  0  0  0  0  0
    2.3325    1.5151    0.7034 H   0  0  0  0  0  0  0  0  0  0  0  0
    5.0627    0.4435   -0.1824 H   0  0  0  0  0  0  0  0  0  0  0  0
    4.6580    1.1447    1.4136 H   0  0  0  0  0  0  0  0  0  0  0  0
    5.6817    2.7463   -0.0325 H   0  0  0  0  0  0  0  0  0  0  0  0
    4.0476    3.2880    0.3730 H   0  0  0  0  0  0  0  0  0  0  0  0
    4.9967    3.3749   -2.1236 H   0  0  0  0  0  0  0  0  0  0  0  0
    3.2363    2.9340   -1.8008 H   0  0  0  0  0  0  0  0  0  0  0  0
    4.4505    1.6595   -2.1339 H   0  0  0  0  0  0  0  0  0  0  0  0
    4.6451   -3.2133   -0.1897 H   0  0  0  0  0  0  0  0  0  0  0  0
    3.5665   -3.9121    1.0435 H   0  0  0  0  0  0  0  0  0  0  0  0
    3.8315   -2.2357    2.2817 H   0  0  0  0  0  0  0  0  0  0  0  0
    0.0062   -2.9318   -1.3454 H   0  0  0  0  0  0  0  0  0  0  0  0
   -1.0941   -2.8539    0.0491 H   0  0  0  0  0  0  0  0  0  0  0  0
    0.5232   -3.4916    0.2669 H   0  0  0  0  0  0  0  0  0  0  0  0
    0.3409   -1.5552    2.2211 H   0  0  0  0  0  0  0  0  0  0  0  0
    0.6452    0.0877    1.6219 H   0  0  0  0  0  0  0  0  0  0  0  0
   -1.4653    0.1081    2.4516 H   0  0  0  0  0  0  0  0  0  0  0  0
   -1.8199   -1.9751    2.7072 H   0  0  0  0  0  0  0  0  0  0  0  0
   -1.3871    1.2952    0.4628 H   0  0  0  0  0  0  0  0  0  0  0  0
   -1.8760   -1.3099   -0.9691 H   0  0  0  0  0  0  0  0  0  0  0  0
   -1.8360    1.5425   -1.9047 H   0  0  0  0  0  0  0  0  0  0  0  0
   -1.6975    0.0705   -3.0107 H   0  0  0  0  0  0  0  0  0  0  0  0
   -3.7677   -0.7785   -1.7383 H   0  0  0  0  0  0  0  0  0  0  0  0
   -4.0325    0.6129   -2.8299 H   0  0  0  0  0  0  0  0  0  0  0  0
   -5.0158    2.5666   -1.8438 H   0  0  0  0  0  0  0  0  0  0  0  0
   -4.6015    3.0103    2.5960 H   0  0  0  0  0  0  0  0  0  0  0  0
   -3.3279    1.0016    2.5602 H   0  0  0  0  0  0  0  0  0  0  0  0
   -3.7217   -1.6096    0.1233 H   0  0  0  0  0  0  0  0  0  0  0  0
   -5.1827   -0.6459    0.2738 H   0  0  0  0  0  0  0  0  0  0  0  0
   -4.3205   -0.9657    1.7658 H   0  0  0  0  0  0  0  0  0  0  0  0
  1  2  1  0
  2  3  1  0
  3  4  1  0
  4  5  1  0
  5  6  1  0
  6  7  1  0
  7  8  1  0
  5  9  1  0
  9 10  1  0
 10 11  1  6
 11 12  2  0
 11 13  1  0
 13 14  1  0
 10 15  1  0
 15 16  1  6
 15 17  1  0
 17 18  1  0
 18 19  1  0
 18 20  1  0
 20 21  1  0
 21 22  1  0
 22 23  1  0
 23 24  1  0
 24 25  2  0
 25 26  1  0
 26 27  2  0
 26 28  1  0
 28 29  2  0
 29 30  1  0
 30 31  1  1
 15  1  1  0
 30 20  1  0
 21  1  1  0
 30 24  1  0
 10  3  1  0
  1 32  1  1
  2 33  1  0
  2 34  1  0
  3 35  1  6
  5 36  1  0
  6 37  1  0
  6 38  1  0
  7 39  1  0
  7 40  1  0
  8 41  1  0
  8 42  1  0
  8 43  1  0
 13 44  1  0
 13 45  1  0
 14 46  1  0
 16 47  1  0
 16 48  1  0
 16 49  1  0
 17 50  1  0
 17 51  1  0
 18 52  1  1
 19 53  1  0
 20 54  1  1
 21 55  1  1
 22 56  1  0
 22 57  1  0
 23 58  1  0
 23 59  1  0
 25 60  1  0
 28 61  1  0
 29 62  1  0
 31 63  1  0
 31 64  1  0
 31 65  1  0
M  END
$$$$
