@<TRIPOS>MOLECULE
*****
 55 58 0 0 0
SMALL
GASTEIGER

@<TRIPOS>ATOM
      1 N          -4.9402    3.3758    0.3150 N.pl3   1  UNL1       -0.3565
      2 C          -5.2871    2.0144    0.0132 C.ar    1  UNL1        0.0461
      3 C          -6.5653    1.6893   -0.4028 C.ar    1  UNL1       -0.0386
      4 C          -6.9043    0.3629   -0.6973 C.ar    1  UNL1       -0.0517
      5 C          -5.9907   -0.6332   -0.5823 C.ar    1  UNL1       -0.0094
      6 C          -6.3326   -2.0549   -0.8909 C.ar    1  UNL1        0.0194
      7 C          -7.4731   -2.5787   -1.2986 C.ar    1  UNL1       -0.0469
      8 C          -7.5738   -3.9019   -1.5241 C.ar    1  UNL1       -0.0541
      9 C          -6.4479   -4.6716   -1.3125 C.ar    1  UNL1       -0.0237
     10 S          -5.2451   -3.4073   -0.7769 S.2     1  UNL1       -0.0967
     11 C          -4.7129   -0.3267   -0.1692 C.ar    1  UNL1       -0.0305
     12 C          -4.3750    0.9909    0.1236 C.ar    1  UNL1        0.0551
     13 N          -3.0592    1.3111    0.5478 N.am    1  UNL1       -0.2799
     14 C          -2.0150    1.6632   -0.3150 C.2     1  UNL1        0.2483
     15 O          -2.2750    1.6957   -1.5583 O.2     1  UNL1       -0.2699
     16 C          -0.6540    1.9952    0.0977 C.ar    1  UNL1        0.0370
     17 C           0.3182    2.3543   -0.8101 C.ar    1  UNL1       -0.0493
     18 C           1.6227    2.6701   -0.4071 C.ar    1  UNL1       -0.0564
     19 C           1.9889    2.6344    0.9151 C.ar    1  UNL1       -0.0302
     20 C           3.3381    2.9414    1.4158 C.3     1  UNL1        0.0400
     21 N           4.0975    1.7282    1.5370 N.am    1  UNL1       -0.2770
     22 C           4.6866    1.0574    0.4663 C.2     1  UNL1        0.4008
     23 O           4.5810    1.4975   -0.6958 O.2     1  UNL1       -0.2265
     24 O           5.4204   -0.1280    0.6141 O.3     1  UNL1       -0.4456
     25 C           5.9911   -0.7531   -0.5248 C.3     1  UNL1        0.1205
     26 C           6.6982   -1.9714   -0.0550 C.ar    1  UNL1        0.0078
     27 C           8.0118   -1.8799    0.3112 C.ar    1  UNL1       -0.0525
     28 C           8.6816   -3.0064    0.7486 C.ar    1  UNL1       -0.0432
     29 C           8.0097   -4.2084    0.8084 C.ar    1  UNL1        0.0276
     30 N           6.7228   -4.3125    0.4529 N.ar    1  UNL1       -0.2629
     31 C           6.0753   -3.1997    0.0248 C.ar    1  UNL1        0.0339
     32 C           0.9976    2.2695    1.8311 C.ar    1  UNL1       -0.0564
     33 C          -0.2818    1.9612    1.4244 C.ar    1  UNL1       -0.0493
     34 H          -4.2358    3.6199    1.0494 H       1  UNL1        0.1424
     35 H          -5.4033    4.1234   -0.2122 H       1  UNL1        0.1424
     36 H          -7.2950    2.4749   -0.4968 H       1  UNL1        0.0637
     37 H          -7.9097    0.1368   -1.0204 H       1  UNL1        0.0624
     38 H          -8.3739   -1.9214   -1.4616 H       1  UNL1        0.0629
     39 H          -8.5265   -4.4115   -1.8758 H       1  UNL1        0.0623
     40 H          -6.2383   -5.7406   -1.4103 H       1  UNL1        0.0693
     41 H          -3.9930   -1.1369   -0.0816 H       1  UNL1        0.0643
     42 H          -2.8630    1.2801    1.5798 H       1  UNL1        0.1552
     43 H           0.0913    2.3986   -1.8524 H       1  UNL1        0.0625
     44 H           2.3671    2.9590   -1.1377 H       1  UNL1        0.0621
     45 H           3.9051    3.6120    0.7255 H       1  UNL1        0.0513
     46 H           3.2427    3.4424    2.4046 H       1  UNL1        0.0513
     47 H           4.2120    1.3237    2.5056 H       1  UNL1        0.1523
     48 H           5.1478   -1.0159   -1.1990 H       1  UNL1        0.0750
     49 H           6.6828   -0.0250   -0.9822 H       1  UNL1        0.0750
     50 H           8.4957   -0.9101    0.2462 H       1  UNL1        0.0622
     51 H           9.7174   -2.9098    1.0321 H       1  UNL1        0.0633
     52 H           8.5327   -5.0861    1.1490 H       1  UNL1        0.0829
     53 H           5.0378   -3.3206   -0.2542 H       1  UNL1        0.0833
     54 H           1.2759    2.2388    2.8713 H       1  UNL1        0.0621
     55 H          -0.9784    1.6896    2.2154 H       1  UNL1        0.0625
@<TRIPOS>BOND
     1     1     2    1
     2     2     3   ar
     3     3     4   ar
     4     4     5   ar
     5     5     6    1
     6     6     7   ar
     7     7     8   ar
     8     8     9   ar
     9     9    10   ar
    10     5    11   ar
    11    11    12   ar
    12    12    13    1
    13    13    14   am
    14    14    15    2
    15    14    16    1
    16    16    17   ar
    17    17    18   ar
    18    18    19   ar
    19    19    20    1
    20    20    21    1
    21    21    22   am
    22    22    23    2
    23    22    24    1
    24    24    25    1
    25    25    26    1
    26    26    27   ar
    27    27    28   ar
    28    28    29   ar
    29    29    30   ar
    30    30    31   ar
    31    19    32   ar
    32    32    33   ar
    33    12     2   ar
    34    33    16   ar
    35    10     6   ar
    36    31    26   ar
    37     1    34    1
    38     1    35    1
    39     3    36    1
    40     4    37    1
    41     7    38    1
    42     8    39    1
    43     9    40    1
    44    11    41    1
    45    13    42    1
    46    17    43    1
    47    18    44    1
    48    20    45    1
    49    20    46    1
    50    21    47    1
    51    25    48    1
    52    25    49    1
    53    27    50    1
    54    28    51    1
    55    29    52    1
    56    31    53    1
    57    32    54    1
    58    33    55    1
