
     RDKit          3D

 55 58  0  0  0  0  0  0  0  0999 V2000
   -4.9402    3.3758    0.3150 N   0  0  0  0  0  0  0  0  0  0  0  0
   -5.2871    2.0144    0.0132 C   0  0  0  0  0  0  0  0  0  0  0  0
   -6.5653    1.6893   -0.4028 C   0  0  0  0  0  0  0  0  0  0  0  0
   -6.9043    0.3629   -0.6973 C   0  0  0  0  0  0  0  0  0  0  0  0
   -5.9907   -0.6332   -0.5823 C   0  0  0  0  0  0  0  0  0  0  0  0
   -6.3326   -2.0549   -0.8909 C   0  0  0  0  0  0  0  0  0  0  0  0
   -7.4731   -2.5787   -1.2986 C   0  0  0  0  0  0  0  0  0  0  0  0
   -7.5738   -3.9019   -1.5241 C   0  0  0  0  0  0  0  0  0  0  0  0
   -6.4479   -4.6716   -1.3125 C   0  0  0  0  0  0  0  0  0  0  0  0
   -5.2451   -3.4073   -0.7769 S   0  0  0  0  0  0  0  0  0  0  0  0
   -4.7129   -0.3267   -0.1692 C   0  0  0  0  0  0  0  0  0  0  0  0
   -4.3750    0.9909    0.1236 C   0  0  0  0  0  0  0  0  0  0  0  0
   -3.0592    1.3111    0.5478 N   0  0  0  0  0  0  0  0  0  0  0  0
   -2.0150    1.6632   -0.3150 C   0  0  0  0  0  0  0  0  0  0  0  0
   -2.2750    1.6957   -1.5583 O   0  0  0  0  0  0  0  0  0  0  0  0
   -0.6540    1.9952    0.0977 C   0  0  0  0  0  0  0  0  0  0  0  0
    0.3182    2.3543   -0.8101 C   0  0  0  0  0  0  0  0  0  0  0  0
    1.6227    2.6701   -0.4071 C   0  0  0  0  0  0  0  0  0  0  0  0
    1.9889    2.6344    0.9151 C   0  0  0  0  0  0  0  0  0  0  0  0
    3.3381    2.9414    1.4158 C   0  0  0  0  0  0  0  0  0  0  0  0
    4.0975    1.7282    1.5370 N   0  0  0  0  0  0  0  0  0  0  0  0
    4.6866    1.0574    0.4663 C   0  0  0  0  0  0  0  0  0  0  0  0
    4.5810    1.4975   -0.6958 O   0  0  0  0  0  0  0  0  0  0  0  0
    5.4204   -0.1280    0.6141 O   0  0  0  0  0  0  0  0  0  0  0  0
    5.9911   -0.7531   -0.5248 C   0  0  0  0  0  0  0  0  0  0  0  0
    6.6982   -1.9714   -0.0550 C   0  0  0  0  0  0  0  0  0  0  0  0
    8.0118   -1.8799    0.3112 C   0  0  0  0  0  0  0  0  0  0  0  0
    8.6816   -3.0064    0.7486 C   0  0  0  0  0  0  0  0  0  0  0  0
    8.0097   -4.2084    0.8084 C   0  0  0  0  0  0  0  0  0  0  0  0
    6.7228   -4.3125    0.4529 N   0  0  0  0  0  0  0  0  0  0  0  0
    6.0753   -3.1997    0.0248 C   0  0  0  0  0  0  0  0  0  0  0  0
    0.9976    2.2695    1.8311 C   0  0  0  0  0  0  0  0  0  0  0  0
   -0.2818    1.9612    1.4244 C   0  0  0  0  0  0  0  0  0  0  0  0
   -4.2358    3.6199    1.0494 H   0  0  0  0  0  0  0  0  0  0  0  0
   -5.4033    4.1234   -0.2122 H   0  0  0  0  0  0  0  0  0  0  0  0
   -7.2950    2.4749   -0.4968 H   0  0  0  0  0  0  0  0  0  0  0  0
   -7.9097    0.1368   -1.0204 H   0  0  0  0  0  0  0  0  0  0  0  0
   -8.3739   -1.9214   -1.4616 H   0  0  0  0  0  0  0  0  0  0  0  0
   -8.5265   -4.4115   -1.8758 H   0  0  0  0  0  0  0  0  0  0  0  0
   -6.2383   -5.7406   -1.4103 H   0  0  0  0  0  0  0  0  0  0  0  0
   -3.9930   -1.1369   -0.0816 H   0  0  0  0  0  0  0  0  0  0  0  0
   -2.8630    1.2801    1.5798 H   0  0  0  0  0  0  0  0  0  0  0  0
    0.0913    2.3986   -1.8524 H   0  0  0  0  0  0  0  0  0  0  0  0
    2.3671    2.9590   -1.1377 H   0  0  0  0  0  0  0  0  0  0  0  0
    3.9051    3.6120    0.7255 H   0  0  0  0  0  0  0  0  0  0  0  0
    3.2427    3.4424    2.4046 H   0  0  0  0  0  0  0  0  0  0  0  0
    4.2120    1.3237    2.5056 H   0  0  0  0  0  0  0  0  0  0  0  0
    5.1478   -1.0159   -1.1990 H   0  0  0  0  0  0  0  0  0  0  0  0
    6.6828   -0.0250   -0.9822 H   0  0  0  0  0  0  0  0  0  0  0  0
    8.4957   -0.9101    0.2462 H   0  0  0  0  0  0  0  0  0  0  0  0
    9.7174   -2.9098    1.0321 H   0  0  0  0  0  0  0  0  0  0  0  0
    8.5327   -5.0861    1.1490 H   0  0  0  0  0  0  0  0  0  0  0  0
    5.0378   -3.3206   -0.2542 H   0  0  0  0  0  0  0  0  0  0  0  0
    1.2759    2.2388    2.8713 H   0  0  0  0  0  0  0  0  0  0  0  0
   -0.9784    1.6896    2.2154 H   0  0  0  0  0  0  0  0  0  0  0  0
  1  2  1  0
  2  3  2  0
  3  4  1  0
  4  5  2  0
  5  6  1  0
  6  7  2  0
  7  8  1  0
  8  9  2  0
  9 10  1  0
  5 11  1  0
 11 12  2  0
 12 13  1  0
 13 14  1  0
 14 15  2  0
 14 16  1  0
 16 17  2  0
 17 18  1  0
 18 19  2  0
 19 20  1  0
 20 21  1  0
 21 22  1  0
 22 23  2  0
 22 24  1  0
 24 25  1  0
 25 26  1  0
 26 27  2  0
 27 28  1  0
 28 29  2  0
 29 30  1  0
 30 31  2  0
 19 32  1  0
 32 33  2  0
 12  2  1  0
 33 16  1  0
 10  6  1  0
 31 26  1  0
  1 34  1  0
  1 35  1  0
  3 36  1  0
  4 37  1  0
  7 38  1  0
  8 39  1  0
  9 40  1  0
 11 41  1  0
 13 42  1  0
 17 43  1  0
 18 44  1  0
 20 45  1  0
 20 46  1  0
 21 47  1  0
 25 48  1  0
 25 49  1  0
 27 50  1  0
 28 51  1  0
 29 52  1  0
 31 53  1  0
 32 54  1  0
 33 55  1  0
M  END
$$$$
