
     RDKit          3D

 44 47  0  0  0  0  0  0  0  0999 V2000
   -2.9771    1.5234    1.2049 C   0  0  0  0  0  0  0  0  0  0  0  0
   -3.8444    0.3667    1.3824 N   0  0  0  0  0  0  0  0  0  0  0  0
   -4.5529    0.1217    2.4977 N   0  0  0  0  0  0  0  0  0  0  0  0
   -5.2520   -1.0078    2.3201 C   0  0  0  0  0  0  0  0  0  0  0  0
   -4.9578   -1.4638    1.0547 C   0  0  0  0  0  0  0  0  0  0  0  0
   -4.0511   -0.5717    0.4615 C   0  0  0  0  0  0  0  0  0  0  0  0
   -3.5439   -0.7448   -0.8791 C   0  0  0  0  0  0  0  0  0  0  0  0
   -4.3672   -1.0074   -1.9746 C   0  0  0  0  0  0  0  0  0  0  0  0
   -3.8430   -1.1849   -3.2351 C   0  0  0  0  0  0  0  0  0  0  0  0
   -4.8946   -1.5122   -4.5885 Cl  0  0  0  0  0  0  0  0  0  0  0  0
   -2.4884   -1.1107   -3.4630 C   0  0  0  0  0  0  0  0  0  0  0  0
   -1.6579   -0.8506   -2.3819 C   0  0  0  0  0  0  0  0  0  0  0  0
   -2.1902   -0.6705   -1.1060 C   0  0  0  0  0  0  0  0  0  0  0  0
   -1.3477   -0.4146   -0.0608 O   0  0  0  0  0  0  0  0  0  0  0  0
    0.0095   -0.2597   -0.2291 C   0  0  0  0  0  0  0  0  0  0  0  0
    0.8657   -1.1727    0.3573 C   0  0  0  0  0  0  0  0  0  0  0  0
    2.2529   -1.0165    0.1886 C   0  0  0  0  0  0  0  0  0  0  0  0
    3.0310   -1.9966    0.7103 F   0  0  0  0  0  0  0  0  0  0  0  0
    2.8200   -0.0137   -0.5188 C   0  0  0  0  0  0  0  0  0  0  0  0
    4.4991    0.3227   -0.6929 S   0  0  0  0  0  6  0  0  0  0  0  0
    4.7679    0.8910   -2.0800 O   0  0  0  0  0  0  0  0  0  0  0  0
    5.3097   -0.9757   -0.6704 O   0  0  0  0  0  0  0  0  0  0  0  0
    5.2051    1.3527    0.4556 N   0  0  0  0  0  0  0  0  0  0  0  0
    5.3134    1.1077    1.8413 C   0  0  0  0  0  0  0  0  0  0  0  0
    4.9466   -0.0244    2.4728 C   0  0  0  0  0  0  0  0  0  0  0  0
    5.4088    0.2884    4.2606 S   0  0  0  0  0  0  0  0  0  0  0  0
    6.0538    1.9999    3.7916 C   0  0  0  0  0  0  0  0  0  0  0  0
    5.8522    2.0125    2.6671 N   0  0  0  0  0  0  0  0  0  0  0  0
    1.9369    0.8996   -1.1055 C   0  0  0  0  0  0  0  0  0  0  0  0
    0.5773    0.7654   -0.9543 C   0  0  0  0  0  0  0  0  0  0  0  0
   -0.4998    1.9556   -1.6754 Cl  0  0  0  0  0  0  0  0  0  0  0  0
   -2.8510    1.8401    0.1729 H   0  0  0  0  0  0  0  0  0  0  0  0
   -3.5360    2.3806    1.7009 H   0  0  0  0  0  0  0  0  0  0  0  0
   -2.0684    1.4179    1.8111 H   0  0  0  0  0  0  0  0  0  0  0  0
   -5.9098   -1.4404    3.0594 H   0  0  0  0  0  0  0  0  0  0  0  0
   -5.3713   -2.3633    0.6154 H   0  0  0  0  0  0  0  0  0  0  0  0
   -5.4349   -1.0601   -1.7604 H   0  0  0  0  0  0  0  0  0  0  0  0
   -2.0478   -1.2473   -4.4524 H   0  0  0  0  0  0  0  0  0  0  0  0
   -0.5940   -0.8100   -2.5663 H   0  0  0  0  0  0  0  0  0  0  0  0
    0.4941   -2.0019    0.9409 H   0  0  0  0  0  0  0  0  0  0  0  0
    5.6202    2.2966    0.1120 H   0  0  0  0  0  0  0  0  0  0  0  0
    4.5215   -0.9410    2.2071 H   0  0  0  0  0  0  0  0  0  0  0  0
    6.4646    2.6122    4.6017 H   0  0  0  0  0  0  0  0  0  0  0  0
    2.3312    1.7076   -1.6764 H   0  0  0  0  0  0  0  0  0  0  0  0
  1  2  1  0
  2  3  1  0
  3  4  2  0
  4  5  1  0
  5  6  2  0
  6  7  1  0
  7  8  2  0
  8  9  1  0
  9 10  1  0
  9 11  2  0
 11 12  1  0
 12 13  2  0
 13 14  1  0
 14 15  1  0
 15 16  2  0
 16 17  1  0
 17 18  1  0
 17 19  2  0
 19 20  1  0
 20 21  2  0
 20 22  2  0
 20 23  1  0
 23 24  1  0
 24 25  2  0
 25 26  1  0
 26 27  1  0
 27 28  2  0
 19 29  1  0
 29 30  2  0
 30 31  1  0
  6  2  1  0
 13  7  1  0
 30 15  1  0
 28 24  1  0
  1 32  1  0
  1 33  1  0
  1 34  1  0
  4 35  1  0
  5 36  1  0
  8 37  1  0
 11 38  1  0
 12 39  1  0
 16 40  1  0
 23 41  1  0
 25 42  1  0
 27 43  1  0
 29 44  1  0
M  END
$$$$
