@<TRIPOS>MOLECULE
*****
 44 47 0 0 0
SMALL
GASTEIGER

@<TRIPOS>ATOM
      1 C          -2.9771    1.5234    1.2049 C.3     1  UNL1        0.0309
      2 N          -3.8444    0.3667    1.3824 N.ar    1  UNL1       -0.2667
      3 N          -4.5529    0.1217    2.4977 N.ar    1  UNL1       -0.1793
      4 C          -5.2520   -1.0078    2.3201 C.ar    1  UNL1        0.0500
      5 C          -4.9578   -1.4638    1.0547 C.ar    1  UNL1       -0.0162
      6 C          -4.0511   -0.5717    0.4615 C.ar    1  UNL1        0.0721
      7 C          -3.5439   -0.7448   -0.8791 C.ar    1  UNL1        0.0436
      8 C          -4.3672   -1.0074   -1.9746 C.ar    1  UNL1       -0.0307
      9 C          -3.8430   -1.1849   -3.2351 C.ar    1  UNL1        0.0418
     10 CL         -4.8946   -1.5122   -4.5885 Cl      1  UNL1       -0.0835
     11 C          -2.4884   -1.1107   -3.4630 C.ar    1  UNL1       -0.0399
     12 C          -1.6579   -0.8506   -2.3819 C.ar    1  UNL1       -0.0173
     13 C          -2.1902   -0.6705   -1.1060 C.ar    1  UNL1        0.1377
     14 O          -1.3477   -0.4146   -0.0608 O.3     1  UNL1       -0.4538
     15 C           0.0095   -0.2597   -0.2291 C.ar    1  UNL1        0.1495
     16 C           0.8657   -1.1727    0.3573 C.ar    1  UNL1        0.0193
     17 C           2.2529   -1.0165    0.1886 C.ar    1  UNL1        0.1535
     18 F           3.0310   -1.9966    0.7103 F       1  UNL1       -0.2033
     19 C           2.8200   -0.0137   -0.5188 C.ar    1  UNL1        0.1451
     20 S           4.4991    0.3227   -0.6929 S.O2    1  UNL1        0.0763
     21 O           4.7679    0.8910   -2.0800 O.2     1  UNL1       -0.1498
     22 O           5.3097   -0.9757   -0.6704 O.2     1  UNL1       -0.1498
     23 N           5.2051    1.3527    0.4556 N.pl3   1  UNL1       -0.1989
     24 C           5.3134    1.1077    1.8413 C.ar    1  UNL1        0.1449
     25 C           4.9466   -0.0244    2.4728 C.ar    1  UNL1        0.0183
     26 S           5.4088    0.2884    4.2606 S.2     1  UNL1       -0.0819
     27 C           6.0538    1.9999    3.7916 C.ar    1  UNL1        0.0669
     28 N           5.8522    2.0125    2.6671 N.ar    1  UNL1       -0.2315
     29 C           1.9369    0.8996   -1.1055 C.ar    1  UNL1       -0.0103
     30 C           0.5773    0.7654   -0.9543 C.ar    1  UNL1        0.0852
     31 CL         -0.4998    1.9556   -1.6754 Cl      1  UNL1       -0.0797
     32 H          -2.8510    1.8401    0.1729 H       1  UNL1        0.0473
     33 H          -3.5360    2.3806    1.7009 H       1  UNL1        0.0473
     34 H          -2.0684    1.4179    1.8111 H       1  UNL1        0.0473
     35 H          -5.9098   -1.4404    3.0594 H       1  UNL1        0.0848
     36 H          -5.3713   -2.3633    0.6154 H       1  UNL1        0.0654
     37 H          -5.4349   -1.0601   -1.7604 H       1  UNL1        0.0640
     38 H          -2.0478   -1.2473   -4.4524 H       1  UNL1        0.0633
     39 H          -0.5940   -0.8100   -2.5663 H       1  UNL1        0.0655
     40 H           0.4941   -2.0019    0.9409 H       1  UNL1        0.0684
     41 H           5.6202    2.2966    0.1120 H       1  UNL1        0.1753
     42 H           4.5215   -0.9410    2.2071 H       1  UNL1        0.0729
     43 H           6.4646    2.6122    4.6017 H       1  UNL1        0.0908
     44 H           2.3312    1.7076   -1.6764 H       1  UNL1        0.0654
@<TRIPOS>BOND
     1     1     2    1
     2     2     3   ar
     3     3     4   ar
     4     4     5   ar
     5     5     6   ar
     6     6     7    1
     7     7     8   ar
     8     8     9   ar
     9     9    10    1
    10     9    11   ar
    11    11    12   ar
    12    12    13   ar
    13    13    14    1
    14    14    15    1
    15    15    16   ar
    16    16    17   ar
    17    17    18    1
    18    17    19   ar
    19    19    20    1
    20    20    21    2
    21    20    22    2
    22    20    23    1
    23    23    24    1
    24    24    25   ar
    25    25    26   ar
    26    26    27   ar
    27    27    28   ar
    28    19    29   ar
    29    29    30   ar
    30    30    31    1
    31     6     2   ar
    32    13     7   ar
    33    30    15   ar
    34    28    24   ar
    35     1    32    1
    36     1    33    1
    37     1    34    1
    38     4    35    1
    39     5    36    1
    40     8    37    1
    41    11    38    1
    42    12    39    1
    43    16    40    1
    44    23    41    1
    45    25    42    1
    46    27    43    1
    47    29    44    1
