@<TRIPOS>MOLECULE
*****
 69 74 0 0 0
SMALL
GASTEIGER

@<TRIPOS>ATOM
      1 C          10.9812   -1.7025   -0.1550 C.3     1  UNL1        0.0371
      2 O          10.6944   -1.5415   -1.5208 O.3     1  UNL1       -0.3736
      3 C          10.2990   -0.2363   -1.7983 C.3     1  UNL1        0.1258
      4 C           9.0768    0.0995   -1.0108 C.ar    1  UNL1        0.2534
      5 N           7.7810   -0.0634   -1.3352 N.ar    1  UNL1       -0.1894
      6 C           6.9838    0.3689   -0.3440 C.ar    1  UNL1        0.2021
      7 C           5.5110    0.3682   -0.2925 C.ar    1  UNL1        0.0226
      8 C           4.8454   -0.7275    0.2085 C.ar    1  UNL1       -0.0492
      9 C           3.4431   -0.7566    0.2738 C.ar    1  UNL1       -0.0391
     10 C           2.7105    0.3149   -0.1642 C.ar    1  UNL1        0.0455
     11 N           1.2935    0.2894   -0.0973 N.am    1  UNL1       -0.1920
     12 C           0.4787    0.7255    1.0038 C.2     1  UNL1        0.3219
     13 O           0.9825    1.2042    2.0815 O.2     1  UNL1       -0.2512
     14 N          -0.9037    0.5545    0.7305 N.am    1  UNL1       -0.2240
     15 C          -1.8906    0.7960    1.7248 C.ar    1  UNL1        0.1364
     16 C          -2.3208   -0.2241    2.5712 C.ar    1  UNL1        0.0432
     17 C          -3.2643   -0.0028    3.5404 C.ar    1  UNL1        0.2531
     18 O          -3.6306   -0.9280    4.2817 O.2     1  UNL1       -0.2678
     19 N          -3.7856    1.2165    3.6793 N.ar    1  UNL1       -0.3133
     20 C          -3.3899    2.2353    2.8715 C.ar    1  UNL1        0.0981
     21 N          -2.4595    1.9953    1.9237 N.ar    1  UNL1       -0.2220
     22 C          -1.0313    0.1308   -0.6431 C.3     1  UNL1        0.1240
     23 C          -1.8011   -1.1234   -0.8515 C.3     1  UNL1       -0.0095
     24 C          -3.2487   -0.8915   -0.7502 C.3     1  UNL1        0.0017
     25 N          -3.7788    0.3936   -0.8847 N.3     1  UNL1       -0.2965
     26 C          -5.0598    0.2904   -1.6070 C.3     1  UNL1        0.0415
     27 C          -6.0006   -0.5984   -0.9268 C.ar    1  UNL1        0.0581
     28 N          -6.1805   -1.8336   -1.4219 N.ar    1  UNL1       -0.2583
     29 C          -7.0195   -2.7162   -0.8571 C.ar    1  UNL1        0.0279
     30 C          -7.7332   -2.3770    0.2652 C.ar    1  UNL1       -0.0433
     31 C          -7.5839   -1.1236    0.8099 C.ar    1  UNL1       -0.0557
     32 C          -6.7033   -0.2345    0.1951 C.ar    1  UNL1       -0.0279
     33 C          -6.5519    1.1241    0.7927 C.3     1  UNL1       -0.0380
     34 C          -3.0223    1.4296   -1.4588 C.3     1  UNL1        0.0017
     35 C          -1.5471    1.2305   -1.5330 C.3     1  UNL1       -0.0095
     36 C           0.3723   -0.1632   -1.0754 C.2     1  UNL1        0.2516
     37 O           0.6399   -0.7308   -2.1580 O.2     1  UNL1       -0.2724
     38 C           3.3676    1.4053   -0.6628 C.ar    1  UNL1       -0.0391
     39 C           4.7697    1.4370   -0.7292 C.ar    1  UNL1       -0.0492
     40 N           7.8347    0.8082    0.6115 N.ar    1  UNL1       -0.0560
     41 O           9.0577    0.6438    0.2062 O.2     1  UNL1       -0.3353
     42 H          11.7989   -1.0256    0.1673 H       1  UNL1        0.0524
     43 H          11.1909   -2.7542    0.0857 H       1  UNL1        0.0524
     44 H          10.0961   -1.4238    0.4756 H       1  UNL1        0.0524
     45 H          10.1687   -0.1436   -2.8758 H       1  UNL1        0.0659
     46 H          11.1361    0.4206   -1.4370 H       1  UNL1        0.0659
     47 H           5.3527   -1.5970    0.5668 H       1  UNL1        0.0625
     48 H           2.9120   -1.6175    0.6677 H       1  UNL1        0.0636
     49 H          -1.8579   -1.2007    2.4093 H       1  UNL1        0.0706
     50 H          -4.5054    1.4152    4.4075 H       1  UNL1        0.1698
     51 H          -3.8432    3.2062    3.0251 H       1  UNL1        0.1028
     52 H          -1.4716   -1.5527   -1.8290 H       1  UNL1        0.0303
     53 H          -1.4850   -1.8253   -0.0201 H       1  UNL1        0.0303
     54 H          -3.6131   -1.3116    0.2382 H       1  UNL1        0.0427
     55 H          -3.7509   -1.5932   -1.4945 H       1  UNL1        0.0427
     56 H          -4.9049    0.0150   -2.6534 H       1  UNL1        0.0491
     57 H          -5.4524    1.3401   -1.6170 H       1  UNL1        0.0491
     58 H          -7.1445   -3.6925   -1.2699 H       1  UNL1        0.0829
     59 H          -8.4031   -3.0821    0.7173 H       1  UNL1        0.0633
     60 H          -8.1259   -0.8196    1.6900 H       1  UNL1        0.0621
     61 H          -6.5181    1.9153    0.0243 H       1  UNL1        0.0278
     62 H          -7.4426    1.3452    1.4219 H       1  UNL1        0.0278
     63 H          -5.6237    1.1750    1.3868 H       1  UNL1        0.0278
     64 H          -3.4301    1.6929   -2.4569 H       1  UNL1        0.0427
     65 H          -3.1901    2.3582   -0.8338 H       1  UNL1        0.0427
     66 H          -1.2759    0.9581   -2.5747 H       1  UNL1        0.0303
     67 H          -0.9615    2.1423   -1.2930 H       1  UNL1        0.0303
     68 H           2.8410    2.2808   -1.0229 H       1  UNL1        0.0636
     69 H           5.2877    2.2880   -1.1179 H       1  UNL1        0.0625
@<TRIPOS>BOND
     1     1     2    1
     2     2     3    1
     3     3     4    1
     4     4     5   ar
     5     5     6   ar
     6     6     7    1
     7     7     8   ar
     8     8     9   ar
     9     9    10   ar
    10    10    11    1
    11    11    12   am
    12    12    13    2
    13    12    14   am
    14    14    15    1
    15    15    16   ar
    16    16    17   ar
    17    17    18    2
    18    17    19   ar
    19    19    20   ar
    20    20    21   ar
    21    14    22    1
    22    22    23    1
    23    23    24    1
    24    24    25    1
    25    25    26    1
    26    26    27    1
    27    27    28   ar
    28    28    29   ar
    29    29    30   ar
    30    30    31   ar
    31    31    32   ar
    32    32    33    1
    33    25    34    1
    34    34    35    1
    35    22    36    1
    36    36    37    2
    37    10    38   ar
    38    38    39   ar
    39     6    40   ar
    40    40    41   ar
    41    41     4   ar
    42    39     7   ar
    43    36    11   am
    44    21    15   ar
    45    35    22    1
    46    32    27   ar
    47     1    42    1
    48     1    43    1
    49     1    44    1
    50     3    45    1
    51     3    46    1
    52     8    47    1
    53     9    48    1
    54    16    49    1
    55    19    50    1
    56    20    51    1
    57    23    52    1
    58    23    53    1
    59    24    54    1
    60    24    55    1
    61    26    56    1
    62    26    57    1
    63    29    58    1
    64    30    59    1
    65    31    60    1
    66    33    61    1
    67    33    62    1
    68    33    63    1
    69    34    64    1
    70    34    65    1
    71    35    66    1
    72    35    67    1
    73    38    68    1
    74    39    69    1
