@<TRIPOS>MOLECULE
*****
 66 69 0 0 0
SMALL
GASTEIGER

@<TRIPOS>ATOM
      1 C          -2.2287   -2.7662   -0.1795 C.3     1  UNL1        0.0238
      2 C          -1.4180   -3.2749   -1.3553 C.3     1  UNL1       -0.0480
      3 C          -1.3458   -2.4004    0.9557 C.3     1  UNL1        0.0307
      4 N          -0.8518   -1.0597    0.9178 N.am    1  UNL1       -0.2920
      5 C           0.1836   -0.8553    1.8674 C.2     1  UNL1        0.2484
      6 O           0.2457   -2.0192    2.3903 O.2     1  UNL1       -0.2699
      7 C           0.9609    0.3092    2.1794 C.ar    1  UNL1        0.0559
      8 C           0.5571    1.2282    3.1535 C.ar    1  UNL1        0.0550
      9 CL         -0.9454    0.9700    4.0334 Cl      1  UNL1       -0.0827
     10 C           1.3034    2.3496    3.4564 C.ar    1  UNL1       -0.0185
     11 C           2.4855    2.5716    2.7769 C.ar    1  UNL1        0.0509
     12 N           3.4462    3.5115    2.7894 N.ar    1  UNL1       -0.3489
     13 C           3.3919    4.6705    3.6919 C.3     1  UNL1        0.0119
     14 C           4.4189    3.2565    1.9020 C.ar    1  UNL1        0.0164
     15 C           4.1098    2.0649    1.2349 C.ar    1  UNL1        0.0521
     16 C           4.9686    1.5169    0.2136 C.2     1  UNL1        0.2494
     17 O           6.0404    2.0857   -0.1350 O.2     1  UNL1       -0.2817
     18 C           4.7604    0.3130   -0.5268 C.2     1  UNL1        0.2866
     19 O           4.3304   -0.7514   -1.0022 O.2     1  UNL1       -0.2664
     20 N           5.5866   -0.2265   -1.5295 N.am    1  UNL1       -0.3010
     21 C           5.2797   -1.4583   -2.2250 C.3     1  UNL1        0.0032
     22 C           6.8078    0.4798   -1.8872 C.3     1  UNL1        0.0032
     23 C           2.9158    1.6885    1.8103 C.ar    1  UNL1        0.0116
     24 C           2.1474    0.5862    1.5376 C.ar    1  UNL1       -0.0384
     25 C          -1.4315   -0.1531   -0.0199 C.3     1  UNL1        0.0363
     26 C          -1.3226    1.3035    0.3642 C.3     1  UNL1       -0.0452
     27 C          -2.9049   -0.4568   -0.1552 C.3     1  UNL1        0.0180
     28 N          -3.1909   -1.7814   -0.5469 N.3     1  UNL1       -0.2923
     29 C          -3.7900   -1.9863   -1.8188 C.3     1  UNL1        0.0244
     30 C          -5.0960   -1.3502   -2.0307 C.ar    1  UNL1       -0.0332
     31 C          -5.3527   -0.1064   -2.5672 C.ar    1  UNL1       -0.0546
     32 C          -6.6205    0.4116   -2.7227 C.ar    1  UNL1       -0.0262
     33 C          -7.6990   -0.3469   -2.3234 C.ar    1  UNL1        0.1234
     34 F          -8.9071    0.2255   -2.5066 F       1  UNL1       -0.2055
     35 C          -7.5298   -1.6054   -1.7755 C.ar    1  UNL1       -0.0262
     36 C          -6.2328   -2.0701   -1.6452 C.ar    1  UNL1       -0.0546
     37 H          -2.8234   -3.6673    0.1562 H       1  UNL1        0.0475
     38 H          -0.6070   -3.9239   -0.9199 H       1  UNL1        0.0245
     39 H          -2.0335   -3.9501   -1.9811 H       1  UNL1        0.0245
     40 H          -0.9208   -2.4798   -1.9148 H       1  UNL1        0.0245
     41 H          -0.4526   -3.0903    0.8947 H       1  UNL1        0.0480
     42 H          -1.8127   -2.6398    1.9485 H       1  UNL1        0.0480
     43 H           1.0280    3.0681    4.1895 H       1  UNL1        0.0653
     44 H           3.0391    4.3562    4.6820 H       1  UNL1        0.0456
     45 H           4.3695    5.1890    3.7526 H       1  UNL1        0.0456
     46 H           2.6740    5.4203    3.2629 H       1  UNL1        0.0456
     47 H           5.2893    3.8438    1.7158 H       1  UNL1        0.0816
     48 H           6.0340   -1.6585   -3.0309 H       1  UNL1        0.0428
     49 H           4.3069   -1.4502   -2.7559 H       1  UNL1        0.0428
     50 H           5.3003   -2.3338   -1.5473 H       1  UNL1        0.0428
     51 H           7.5009    0.4917   -1.0085 H       1  UNL1        0.0428
     52 H           6.6140    1.4711   -2.3137 H       1  UNL1        0.0428
     53 H           7.3839   -0.0901   -2.6740 H       1  UNL1        0.0428
     54 H           2.4438   -0.1142    0.8023 H       1  UNL1        0.0632
     55 H          -0.8896   -0.2607   -0.9806 H       1  UNL1        0.0510
     56 H          -1.9390    1.4889    1.2487 H       1  UNL1        0.0248
     57 H          -0.2896    1.6763    0.4122 H       1  UNL1        0.0248
     58 H          -1.8120    1.8725   -0.4677 H       1  UNL1        0.0248
     59 H          -3.3103    0.3186   -0.8325 H       1  UNL1        0.0445
     60 H          -3.3591   -0.2239    0.8418 H       1  UNL1        0.0445
     61 H          -3.9226   -3.1043   -1.9250 H       1  UNL1        0.0476
     62 H          -3.1352   -1.7211   -2.6753 H       1  UNL1        0.0476
     63 H          -4.5083    0.4659   -2.8756 H       1  UNL1        0.0622
     64 H          -6.7039    1.4030   -3.1569 H       1  UNL1        0.0646
     65 H          -8.3815   -2.1710   -1.4751 H       1  UNL1        0.0646
     66 H          -6.1551   -3.0605   -1.2097 H       1  UNL1        0.0622
@<TRIPOS>BOND
     1     1     2    1
     2     1     3    1
     3     3     4    1
     4     4     5   am
     5     5     6    2
     6     5     7    1
     7     7     8   ar
     8     8     9    1
     9     8    10   ar
    10    10    11   ar
    11    11    12   ar
    12    12    13    1
    13    12    14   ar
    14    14    15   ar
    15    15    16    1
    16    16    17    2
    17    16    18    1
    18    18    19    2
    19    18    20   am
    20    20    21    1
    21    20    22    1
    22    15    23   ar
    23    23    24   ar
    24     4    25    1
    25    25    26    1
    26    25    27    1
    27    27    28    1
    28    28    29    1
    29    29    30    1
    30    30    31   ar
    31    31    32   ar
    32    32    33   ar
    33    33    34    1
    34    33    35   ar
    35    35    36   ar
    36    28     1    1
    37    36    30   ar
    38    24     7   ar
    39    23    11   ar
    40     1    37    1
    41     2    38    1
    42     2    39    1
    43     2    40    1
    44     3    41    1
    45     3    42    1
    46    10    43    1
    47    13    44    1
    48    13    45    1
    49    13    46    1
    50    14    47    1
    51    21    48    1
    52    21    49    1
    53    21    50    1
    54    22    51    1
    55    22    52    1
    56    22    53    1
    57    24    54    1
    58    25    55    1
    59    26    56    1
    60    26    57    1
    61    26    58    1
    62    27    59    1
    63    27    60    1
    64    29    61    1
    65    29    62    1
    66    31    63    1
    67    32    64    1
    68    35    65    1
    69    36    66    1
