@<TRIPOS>MOLECULE
*****
 46 48 0 0 0
SMALL
GASTEIGER

@<TRIPOS>ATOM
      1 C           0.9533   -1.4895   -2.2287 C.3     1  UNL1       -0.0240
      2 C           0.3582   -1.3336   -0.8638 C.ar    1  UNL1        0.0228
      3 C          -0.9792   -0.8964   -0.7661 C.ar    1  UNL1        0.0006
      4 C          -1.6099   -0.7339    0.4436 C.ar    1  UNL1        0.1418
      5 O          -2.9259   -0.3019    0.5118 O.3     1  UNL1       -0.4859
      6 C          -3.6545   -0.0168   -0.6729 C.3     1  UNL1        0.1173
      7 C          -5.0315    0.4261   -0.3322 C.ar    1  UNL1        0.0250
      8 C          -5.4321    1.7429   -0.3916 C.ar    1  UNL1       -0.0499
      9 C          -6.6980    2.1516   -0.0784 C.ar    1  UNL1       -0.0259
     10 C          -7.6541    1.2162    0.3244 C.ar    1  UNL1        0.1261
     11 F          -8.9097    1.6019    0.6378 F       1  UNL1       -0.2054
     12 C          -7.2568   -0.1134    0.3866 C.ar    1  UNL1        0.0092
     13 C          -5.9704   -0.5085    0.0655 C.ar    1  UNL1        0.1325
     14 F          -5.6495   -1.8247    0.1482 F       1  UNL1       -0.2050
     15 C          -0.9111   -1.0072    1.5752 C.ar    1  UNL1        0.1238
     16 BR         -1.6978   -0.8139    3.3198 Br      1  UNL1       -0.0409
     17 C           0.4097   -1.4383    1.4531 C.ar    1  UNL1        0.2694
     18 O           1.0278   -1.6850    2.5031 O.2     1  UNL1       -0.2663
     19 N           1.0273   -1.5961    0.2600 N.ar    1  UNL1       -0.3072
     20 C           2.3938   -2.0336    0.2236 C.3     1  UNL1        0.0514
     21 C           3.4055   -0.9490    0.2113 C.ar    1  UNL1       -0.0276
     22 C           3.8245   -0.2570    1.3255 C.ar    1  UNL1       -0.0562
     23 C           4.7944    0.7520    1.2741 C.ar    1  UNL1       -0.0493
     24 C           5.3862    1.1058    0.0829 C.ar    1  UNL1        0.0365
     25 C           6.3967    2.1549    0.0150 C.2     1  UNL1        0.2415
     26 N           6.8037    2.8556    1.1754 N.am    1  UNL1       -0.3253
     27 O           6.9245    2.4544   -1.0817 O.2     1  UNL1       -0.2704
     28 C           4.9752    0.4199   -1.0372 C.ar    1  UNL1       -0.0493
     29 C           4.0206   -0.5745   -0.9906 C.ar    1  UNL1       -0.0562
     30 H           1.5426   -2.4083   -2.3509 H       1  UNL1        0.0292
     31 H           0.0951   -1.6123   -2.9493 H       1  UNL1        0.0292
     32 H           1.4936   -0.5558   -2.5074 H       1  UNL1        0.0292
     33 H          -1.4891   -0.6930   -1.7040 H       1  UNL1        0.0672
     34 H          -3.6566   -0.8942   -1.3403 H       1  UNL1        0.0749
     35 H          -3.1827    0.8472   -1.2237 H       1  UNL1        0.0749
     36 H          -4.7081    2.4759   -0.6999 H       1  UNL1        0.0623
     37 H          -7.0359    3.1818   -0.1179 H       1  UNL1        0.0646
     38 H          -7.9825   -0.8758    0.6995 H       1  UNL1        0.0675
     39 H           2.5277   -2.7246   -0.6414 H       1  UNL1        0.0542
     40 H           2.5306   -2.7013    1.1161 H       1  UNL1        0.0542
     41 H           3.3927   -0.5053    2.2832 H       1  UNL1        0.0621
     42 H           5.0946    1.2679    2.1602 H       1  UNL1        0.0625
     43 H           7.3347    2.4403    1.9693 H       1  UNL1        0.1453
     44 H           6.5581    3.8651    1.2509 H       1  UNL1        0.1453
     45 H           5.4408    0.6962   -1.9812 H       1  UNL1        0.0625
     46 H           3.7236   -1.1120   -1.8891 H       1  UNL1        0.0621
@<TRIPOS>BOND
     1     1     2    1
     2     2     3   ar
     3     3     4   ar
     4     4     5    1
     5     5     6    1
     6     6     7    1
     7     7     8   ar
     8     8     9   ar
     9     9    10   ar
    10    10    11    1
    11    10    12   ar
    12    12    13   ar
    13    13    14    1
    14     4    15   ar
    15    15    16    1
    16    15    17   ar
    17    17    18    2
    18    17    19   ar
    19    19    20    1
    20    20    21    1
    21    21    22   ar
    22    22    23   ar
    23    23    24   ar
    24    24    25    1
    25    25    26   am
    26    25    27    2
    27    24    28   ar
    28    28    29   ar
    29    19     2   ar
    30    29    21   ar
    31    13     7   ar
    32     1    30    1
    33     1    31    1
    34     1    32    1
    35     3    33    1
    36     6    34    1
    37     6    35    1
    38     8    36    1
    39     9    37    1
    40    12    38    1
    41    20    39    1
    42    20    40    1
    43    22    41    1
    44    23    42    1
    45    26    43    1
    46    26    44    1
    47    28    45    1
    48    29    46    1
