@<TRIPOS>MOLECULE
*****
 67 70 0 0 0
SMALL
GASTEIGER

@<TRIPOS>ATOM
      1 C          -6.6600    2.2674   -0.9412 C.3     1  UNL1       -0.0495
      2 C          -6.5059    2.7909    0.4669 C.3     1  UNL1        0.0090
      3 N          -5.2313    3.4419    0.6407 N.pl3   1  UNL1       -0.3137
      4 C          -3.9758    2.7869    0.4667 C.ar    1  UNL1        0.2169
      5 N          -2.8180    3.4345    0.6356 N.ar    1  UNL1       -0.2221
      6 C          -1.6283    2.8096    0.4699 C.ar    1  UNL1        0.0466
      7 C          -1.5530    1.4582    0.1145 C.ar    1  UNL1        0.0948
      8 C          -0.2585    0.8642   -0.0374 C.2     1  UNL1        0.2530
      9 O          -0.1226   -0.3492   -0.3334 O.2     1  UNL1       -0.2697
     10 N           0.9657    1.5855    0.1305 N.am    1  UNL1       -0.2814
     11 C           2.2334    0.9244   -0.0369 C.ar    1  UNL1        0.0338
     12 C           2.8923    0.3145    1.0089 C.ar    1  UNL1       -0.0386
     13 C           4.1096   -0.3095    0.7970 C.ar    1  UNL1       -0.0336
     14 C           4.6832   -0.3331   -0.4566 C.ar    1  UNL1        0.1056
     15 S           6.2174   -1.1185   -0.7305 S.O2    1  UNL1        0.0610
     16 O           6.3899   -2.2582    0.2609 O.2     1  UNL1       -0.1528
     17 O           6.2464   -1.7425   -2.0914 O.2     1  UNL1       -0.1528
     18 N           7.4990   -0.0012   -0.5068 N.3     1  UNL1       -0.1722
     19 C           7.5264    0.5082    0.8307 C.3     1  UNL1        0.0440
     20 C           8.2890   -0.3580    1.8009 C.3     1  UNL1        0.0621
     21 O           9.0283   -1.3509    1.1966 O.3     1  UNL1       -0.3771
     22 C           9.7256   -0.8769    0.0800 C.3     1  UNL1        0.0621
     23 C           8.7591   -0.4572   -1.0098 C.3     1  UNL1        0.0440
     24 C           4.0311    0.2742   -1.5074 C.ar    1  UNL1       -0.0336
     25 C           2.8021    0.9046   -1.2946 C.ar    1  UNL1       -0.0386
     26 C          -2.7366    0.8098   -0.0547 C.ar    1  UNL1        0.1363
     27 N          -2.7782   -0.5565   -0.4206 N.pl3   1  UNL1       -0.3255
     28 C          -4.1365   -1.1361   -0.5671 C.3     1  UNL1        0.0221
     29 C          -4.0411   -2.5859   -0.9746 C.3     1  UNL1       -0.0322
     30 C          -5.4570   -3.0923   -1.1482 C.3     1  UNL1       -0.0252
     31 C          -6.3337   -2.7114    0.0356 C.3     1  UNL1        0.0554
     32 O          -7.1543   -1.6276   -0.2786 O.3     1  UNL1       -0.3918
     33 C          -5.4340   -2.2667    1.1751 C.3     1  UNL1       -0.0252
     34 C          -4.8182   -0.9498    0.7531 C.3     1  UNL1       -0.0322
     35 N          -3.9043    1.4960    0.1271 N.ar    1  UNL1       -0.1990
     36 H          -6.4185    3.0856   -1.6535 H       1  UNL1        0.0245
     37 H          -7.6824    1.8810   -1.0861 H       1  UNL1        0.0245
     38 H          -5.9579    1.4301   -1.0742 H       1  UNL1        0.0245
     39 H          -7.3517    3.4460    0.7628 H       1  UNL1        0.0459
     40 H          -6.5334    1.9152    1.1500 H       1  UNL1        0.0459
     41 H          -5.2373    4.4478    0.9083 H       1  UNL1        0.1489
     42 H          -0.7528    3.4136    0.6290 H       1  UNL1        0.0839
     43 H           0.9315    2.5829    0.3717 H       1  UNL1        0.1551
     44 H           2.4539    0.3275    1.9873 H       1  UNL1        0.0637
     45 H           4.5855   -0.7754    1.6599 H       1  UNL1        0.0638
     46 H           7.9422    1.5540    0.8313 H       1  UNL1        0.0466
     47 H           6.4733    0.6228    1.1717 H       1  UNL1        0.0466
     48 H           8.9325    0.3054    2.4331 H       1  UNL1        0.0573
     49 H           7.5894   -0.8523    2.5274 H       1  UNL1        0.0573
     50 H          10.4269   -0.0575    0.3433 H       1  UNL1        0.0573
     51 H          10.3148   -1.7451   -0.3186 H       1  UNL1        0.0573
     52 H           9.2276    0.3662   -1.6104 H       1  UNL1        0.0466
     53 H           8.5718   -1.2917   -1.7375 H       1  UNL1        0.0466
     54 H           4.4562    0.2741   -2.5124 H       1  UNL1        0.0638
     55 H           2.3293    1.3673   -2.1506 H       1  UNL1        0.0637
     56 H          -1.9684   -1.1718   -0.5920 H       1  UNL1        0.1478
     57 H          -4.6308   -0.5369   -1.3527 H       1  UNL1        0.0498
     58 H          -3.5000   -3.1549   -0.2143 H       1  UNL1        0.0284
     59 H          -3.5561   -2.6042   -1.9730 H       1  UNL1        0.0284
     60 H          -5.5099   -4.1977   -1.2262 H       1  UNL1        0.0291
     61 H          -5.9174   -2.6235   -2.0433 H       1  UNL1        0.0291
     62 H          -6.9754   -3.5297    0.3747 H       1  UNL1        0.0593
     63 H          -7.5030   -1.2450    0.5573 H       1  UNL1        0.2098
     64 H          -6.0854   -2.0360    2.0577 H       1  UNL1        0.0291
     65 H          -4.6715   -3.0020    1.4452 H       1  UNL1        0.0291
     66 H          -4.1480   -0.5340    1.5282 H       1  UNL1        0.0284
     67 H          -5.6861   -0.2514    0.6167 H       1  UNL1        0.0284
@<TRIPOS>BOND
     1     1     2    1
     2     2     3    1
     3     3     4    1
     4     4     5   ar
     5     5     6   ar
     6     6     7   ar
     7     7     8    1
     8     8     9    2
     9     8    10   am
    10    10    11    1
    11    11    12   ar
    12    12    13   ar
    13    13    14   ar
    14    14    15    1
    15    15    16    2
    16    15    17    2
    17    15    18    1
    18    18    19    1
    19    19    20    1
    20    20    21    1
    21    21    22    1
    22    22    23    1
    23    14    24   ar
    24    24    25   ar
    25     7    26   ar
    26    26    27    1
    27    27    28    1
    28    28    29    1
    29    29    30    1
    30    30    31    1
    31    31    32    1
    32    31    33    1
    33    33    34    1
    34    26    35   ar
    35    35     4   ar
    36    25    11   ar
    37    34    28    1
    38    23    18    1
    39     1    36    1
    40     1    37    1
    41     1    38    1
    42     2    39    1
    43     2    40    1
    44     3    41    1
    45     6    42    1
    46    10    43    1
    47    12    44    1
    48    13    45    1
    49    19    46    1
    50    19    47    1
    51    20    48    1
    52    20    49    1
    53    22    50    1
    54    22    51    1
    55    23    52    1
    56    23    53    1
    57    24    54    1
    58    25    55    1
    59    27    56    1
    60    28    57    1
    61    29    58    1
    62    29    59    1
    63    30    60    1
    64    30    61    1
    65    31    62    1
    66    32    63    1
    67    33    64    1
    68    33    65    1
    69    34    66    1
    70    34    67    1
