
     RDKit          3D

 67 70  0  0  0  0  0  0  0  0999 V2000
   -6.6600    2.2674   -0.9412 C   0  0  0  0  0  0  0  0  0  0  0  0
   -6.5059    2.7909    0.4669 C   0  0  0  0  0  0  0  0  0  0  0  0
   -5.2313    3.4419    0.6407 N   0  0  0  0  0  0  0  0  0  0  0  0
   -3.9758    2.7869    0.4667 C   0  0  0  0  0  0  0  0  0  0  0  0
   -2.8180    3.4345    0.6356 N   0  0  0  0  0  0  0  0  0  0  0  0
   -1.6283    2.8096    0.4699 C   0  0  0  0  0  0  0  0  0  0  0  0
   -1.5530    1.4582    0.1145 C   0  0  0  0  0  0  0  0  0  0  0  0
   -0.2585    0.8642   -0.0374 C   0  0  0  0  0  0  0  0  0  0  0  0
   -0.1226   -0.3492   -0.3334 O   0  0  0  0  0  0  0  0  0  0  0  0
    0.9657    1.5855    0.1305 N   0  0  0  0  0  0  0  0  0  0  0  0
    2.2334    0.9244   -0.0369 C   0  0  0  0  0  0  0  0  0  0  0  0
    2.8923    0.3145    1.0089 C   0  0  0  0  0  0  0  0  0  0  0  0
    4.1096   -0.3095    0.7970 C   0  0  0  0  0  0  0  0  0  0  0  0
    4.6832   -0.3331   -0.4566 C   0  0  0  0  0  0  0  0  0  0  0  0
    6.2174   -1.1185   -0.7305 S   0  0  0  0  0  6  0  0  0  0  0  0
    6.3899   -2.2582    0.2609 O   0  0  0  0  0  0  0  0  0  0  0  0
    6.2464   -1.7425   -2.0914 O   0  0  0  0  0  0  0  0  0  0  0  0
    7.4990   -0.0012   -0.5068 N   0  0  0  0  0  0  0  0  0  0  0  0
    7.5264    0.5082    0.8307 C   0  0  0  0  0  0  0  0  0  0  0  0
    8.2890   -0.3580    1.8009 C   0  0  0  0  0  0  0  0  0  0  0  0
    9.0283   -1.3509    1.1966 O   0  0  0  0  0  0  0  0  0  0  0  0
    9.7256   -0.8769    0.0800 C   0  0  0  0  0  0  0  0  0  0  0  0
    8.7591   -0.4572   -1.0098 C   0  0  0  0  0  0  0  0  0  0  0  0
    4.0311    0.2742   -1.5074 C   0  0  0  0  0  0  0  0  0  0  0  0
    2.8021    0.9046   -1.2946 C   0  0  0  0  0  0  0  0  0  0  0  0
   -2.7366    0.8098   -0.0547 C   0  0  0  0  0  0  0  0  0  0  0  0
   -2.7782   -0.5565   -0.4206 N   0  0  0  0  0  0  0  0  0  0  0  0
   -4.1365   -1.1361   -0.5671 C   0  0  1  0  0  0  0  0  0  0  0  0
   -4.0411   -2.5859   -0.9746 C   0  0  0  0  0  0  0  0  0  0  0  0
   -5.4570   -3.0923   -1.1482 C   0  0  0  0  0  0  0  0  0  0  0  0
   -6.3337   -2.7114    0.0356 C   0  0  2  0  0  0  0  0  0  0  0  0
   -7.1543   -1.6276   -0.2786 O   0  0  0  0  0  0  0  0  0  0  0  0
   -5.4340   -2.2667    1.1751 C   0  0  0  0  0  0  0  0  0  0  0  0
   -4.8182   -0.9498    0.7531 C   0  0  0  0  0  0  0  0  0  0  0  0
   -3.9043    1.4960    0.1271 N   0  0  0  0  0  0  0  0  0  0  0  0
   -6.4185    3.0856   -1.6535 H   0  0  0  0  0  0  0  0  0  0  0  0
   -7.6824    1.8810   -1.0861 H   0  0  0  0  0  0  0  0  0  0  0  0
   -5.9579    1.4301   -1.0742 H   0  0  0  0  0  0  0  0  0  0  0  0
   -7.3517    3.4460    0.7628 H   0  0  0  0  0  0  0  0  0  0  0  0
   -6.5334    1.9152    1.1500 H   0  0  0  0  0  0  0  0  0  0  0  0
   -5.2373    4.4478    0.9083 H   0  0  0  0  0  0  0  0  0  0  0  0
   -0.7528    3.4136    0.6290 H   0  0  0  0  0  0  0  0  0  0  0  0
    0.9315    2.5829    0.3717 H   0  0  0  0  0  0  0  0  0  0  0  0
    2.4539    0.3275    1.9873 H   0  0  0  0  0  0  0  0  0  0  0  0
    4.5855   -0.7754    1.6599 H   0  0  0  0  0  0  0  0  0  0  0  0
    7.9422    1.5540    0.8313 H   0  0  0  0  0  0  0  0  0  0  0  0
    6.4733    0.6228    1.1717 H   0  0  0  0  0  0  0  0  0  0  0  0
    8.9325    0.3054    2.4331 H   0  0  0  0  0  0  0  0  0  0  0  0
    7.5894   -0.8523    2.5274 H   0  0  0  0  0  0  0  0  0  0  0  0
   10.4269   -0.0575    0.3433 H   0  0  0  0  0  0  0  0  0  0  0  0
   10.3148   -1.7451   -0.3186 H   0  0  0  0  0  0  0  0  0  0  0  0
    9.2276    0.3662   -1.6104 H   0  0  0  0  0  0  0  0  0  0  0  0
    8.5718   -1.2917   -1.7375 H   0  0  0  0  0  0  0  0  0  0  0  0
    4.4562    0.2741   -2.5124 H   0  0  0  0  0  0  0  0  0  0  0  0
    2.3293    1.3673   -2.1506 H   0  0  0  0  0  0  0  0  0  0  0  0
   -1.9684   -1.1718   -0.5920 H   0  0  0  0  0  0  0  0  0  0  0  0
   -4.6308   -0.5369   -1.3527 H   0  0  0  0  0  0  0  0  0  0  0  0
   -3.5000   -3.1549   -0.2143 H   0  0  0  0  0  0  0  0  0  0  0  0
   -3.5561   -2.6042   -1.9730 H   0  0  0  0  0  0  0  0  0  0  0  0
   -5.5099   -4.1977   -1.2262 H   0  0  0  0  0  0  0  0  0  0  0  0
   -5.9174   -2.6235   -2.0433 H   0  0  0  0  0  0  0  0  0  0  0  0
   -6.9754   -3.5297    0.3747 H   0  0  0  0  0  0  0  0  0  0  0  0
   -7.5030   -1.2450    0.5573 H   0  0  0  0  0  0  0  0  0  0  0  0
   -6.0854   -2.0360    2.0577 H   0  0  0  0  0  0  0  0  0  0  0  0
   -4.6715   -3.0020    1.4452 H   0  0  0  0  0  0  0  0  0  0  0  0
   -4.1480   -0.5340    1.5282 H   0  0  0  0  0  0  0  0  0  0  0  0
   -5.6861   -0.2514    0.6167 H   0  0  0  0  0  0  0  0  0  0  0  0
  1  2  1  0
  2  3  1  0
  3  4  1  0
  4  5  2  0
  5  6  1  0
  6  7  2  0
  7  8  1  0
  8  9  2  0
  8 10  1  0
 10 11  1  0
 11 12  2  0
 12 13  1  0
 13 14  2  0
 14 15  1  0
 15 16  2  0
 15 17  2  0
 15 18  1  0
 18 19  1  0
 19 20  1  0
 20 21  1  0
 21 22  1  0
 22 23  1  0
 14 24  1  0
 24 25  2  0
  7 26  1  0
 26 27  1  0
 27 28  1  0
 28 29  1  0
 29 30  1  0
 30 31  1  0
 31 32  1  0
 31 33  1  0
 33 34  1  0
 26 35  2  0
 35  4  1  0
 25 11  1  0
 34 28  1  0
 23 18  1  0
  1 36  1  0
  1 37  1  0
  1 38  1  0
  2 39  1  0
  2 40  1  0
  3 41  1  0
  6 42  1  0
 10 43  1  0
 12 44  1  0
 13 45  1  0
 19 46  1  0
 19 47  1  0
 20 48  1  0
 20 49  1  0
 22 50  1  0
 22 51  1  0
 23 52  1  0
 23 53  1  0
 24 54  1  0
 25 55  1  0
 27 56  1  0
 28 57  1  6
 29 58  1  0
 29 59  1  0
 30 60  1  0
 30 61  1  0
 31 62  1  1
 32 63  1  0
 33 64  1  0
 33 65  1  0
 34 66  1  0
 34 67  1  0
M  END
$$$$
