@<TRIPOS>MOLECULE
*****
 42 43 0 0 0
SMALL
GASTEIGER

@<TRIPOS>ATOM
      1 C          -1.1995   -0.9477    1.8672 C.3     1  UNL1       -0.0487
      2 C          -1.2407   -0.1110    0.6085 C.3     1  UNL1        0.0166
      3 N          -2.0255   -0.6703   -0.4389 N.3     1  UNL1       -0.3048
      4 C          -1.6579   -1.9757   -0.8849 C.3     1  UNL1       -0.0128
      5 C          -3.4261   -0.5229   -0.1293 C.3     1  UNL1       -0.0128
      6 C           0.1146    0.4054    0.1972 C.3     1  UNL1        0.0111
      7 C           1.1204   -0.6067   -0.0823 C.ar    1  UNL1       -0.0383
      8 C           1.3428   -1.1113   -1.3490 C.ar    1  UNL1       -0.0565
      9 C           2.2992   -2.0719   -1.6015 C.ar    1  UNL1       -0.0417
     10 C           3.0744   -2.5646   -0.5768 C.ar    1  UNL1        0.0593
     11 CL          4.3045   -3.7847   -0.8348 Cl      1  UNL1       -0.0820
     12 C           2.8738   -2.0801    0.6920 C.ar    1  UNL1        0.0595
     13 CL          3.8353   -2.6701    2.0532 Cl      1  UNL1       -0.0820
     14 C           1.9064   -1.1142    0.9222 C.ar    1  UNL1       -0.0382
     15 C           0.5844    1.4918    1.1638 C.3     1  UNL1       -0.0419
     16 C           1.4755    2.4724    0.4299 C.3     1  UNL1       -0.0522
     17 C           0.5322    3.4363   -0.2968 C.3     1  UNL1       -0.0530
     18 C          -0.6185    2.5960   -0.7992 C.3     1  UNL1       -0.0522
     19 C          -0.1620    1.1860   -1.1071 C.3     1  UNL1       -0.0419
     20 H          -0.4184   -1.7331    1.8391 H       1  UNL1        0.0245
     21 H          -2.1564   -1.4835    2.0343 H       1  UNL1        0.0245
     22 H          -1.0143   -0.3356    2.7738 H       1  UNL1        0.0245
     23 H          -1.8008    0.8276    0.9319 H       1  UNL1        0.0468
     24 H          -0.9296   -2.5013   -0.2386 H       1  UNL1        0.0391
     25 H          -2.5786   -2.6346   -0.8654 H       1  UNL1        0.0391
     26 H          -1.3284   -2.0286   -1.9432 H       1  UNL1        0.0391
     27 H          -3.5356   -0.4157    0.9731 H       1  UNL1        0.0391
     28 H          -3.9926   -1.4095   -0.4773 H       1  UNL1        0.0391
     29 H          -3.7706    0.4196   -0.6182 H       1  UNL1        0.0391
     30 H           0.7252   -0.7158   -2.1528 H       1  UNL1        0.0621
     31 H           2.4733   -2.4666   -2.5914 H       1  UNL1        0.0633
     32 H           1.7635   -0.7474    1.9236 H       1  UNL1        0.0635
     33 H           1.0007    1.1175    2.0909 H       1  UNL1        0.0274
     34 H          -0.3632    2.0348    1.4565 H       1  UNL1        0.0274
     35 H           2.0648    3.0109    1.1783 H       1  UNL1        0.0266
     36 H           2.1723    1.9802   -0.2661 H       1  UNL1        0.0266
     37 H           1.0325    4.0040   -1.0788 H       1  UNL1        0.0265
     38 H           0.1562    4.1272    0.4892 H       1  UNL1        0.0265
     39 H          -0.9599    3.0169   -1.7808 H       1  UNL1        0.0266
     40 H          -1.4984    2.6165   -0.1299 H       1  UNL1        0.0266
     41 H           0.7769    1.2690   -1.6821 H       1  UNL1        0.0274
     42 H          -0.9516    0.6907   -1.6997 H       1  UNL1        0.0274
@<TRIPOS>BOND
     1     1     2    1
     2     2     3    1
     3     3     4    1
     4     3     5    1
     5     2     6    1
     6     6     7    1
     7     7     8   ar
     8     8     9   ar
     9     9    10   ar
    10    10    11    1
    11    10    12   ar
    12    12    13    1
    13    12    14   ar
    14     6    15    1
    15    15    16    1
    16    16    17    1
    17    17    18    1
    18    18    19    1
    19    19     6    1
    20    14     7   ar
    21     1    20    1
    22     1    21    1
    23     1    22    1
    24     2    23    1
    25     4    24    1
    26     4    25    1
    27     4    26    1
    28     5    27    1
    29     5    28    1
    30     5    29    1
    31     8    30    1
    32     9    31    1
    33    14    32    1
    34    15    33    1
    35    15    34    1
    36    16    35    1
    37    16    36    1
    38    17    37    1
    39    17    38    1
    40    18    39    1
    41    18    40    1
    42    19    41    1
    43    19    42    1
