
     RDKit          3D

 63 65  0  0  0  0  0  0  0  0999 V2000
   -5.2672    2.1320    2.4270 O   0  0  0  0  0  0  0  0  0  0  0  0
   -4.7109    1.7865    1.2169 C   0  0  0  0  0  0  0  0  0  0  0  0
   -4.9133    0.2987    0.8991 C   0  0  1  0  0  0  0  0  0  0  0  0
   -6.3689   -0.0184    0.9974 C   0  0  1  0  0  0  0  0  0  0  0  0
   -6.9756    0.5278    2.1022 O   0  0  0  0  0  0  0  0  0  0  0  0
   -7.0877    0.4136   -0.2488 C   0  0  2  0  0  0  0  0  0  0  0  0
   -8.4516    0.0959   -0.1302 O   0  0  0  0  0  0  0  0  0  0  0  0
   -6.5278   -0.3618   -1.3921 C   0  0  1  0  0  0  0  0  0  0  0  0
   -6.9001    0.2680   -2.5846 O   0  0  0  0  0  0  0  0  0  0  0  0
   -5.0725   -0.6719   -1.3204 C   0  0  0  0  0  0  0  0  0  0  0  0
   -4.3067    0.0404   -0.3627 N   0  0  0  0  0  0  0  0  0  0  0  0
   -3.0794   -0.7363   -0.0975 C   0  0  0  0  0  0  0  0  0  0  0  0
   -2.2417   -0.7031   -1.3207 C   0  0  0  0  0  0  0  0  0  0  0  0
   -0.9460   -1.4291   -1.2696 C   0  0  0  0  0  0  0  0  0  0  0  0
    0.0256   -0.9421   -0.2147 C   0  0  0  0  0  0  0  0  0  0  0  0
   -0.4807   -1.0528    1.0649 F   0  0  0  0  0  0  0  0  0  0  0  0
    0.3245    0.3883   -0.3907 F   0  0  0  0  0  0  0  0  0  0  0  0
    1.2343   -1.8595   -0.3266 C   0  0  0  0  0  0  0  0  0  0  0  0
    1.8655   -1.8534   -1.5186 O   0  0  0  0  0  0  0  0  0  0  0  0
    2.5293   -0.7489   -1.9421 C   0  0  0  0  0  0  0  0  0  0  0  0
    3.7186   -0.3729   -1.1472 C   0  0  0  0  0  0  0  0  0  0  0  0
    3.6947    0.5011   -0.1050 C   0  0  0  0  0  0  0  0  0  0  0  0
    4.8836    0.7841    0.5922 C   0  0  0  0  0  0  0  0  0  0  0  0
    6.0756    0.2017    0.2511 C   0  0  0  0  0  0  0  0  0  0  0  0
    7.3237    0.4876    0.9706 C   0  0  0  0  0  0  0  0  0  0  0  0
    8.2792   -0.4797    1.0721 C   0  0  0  0  0  0  0  0  0  0  0  0
    9.4403   -0.1581    1.7623 C   0  0  0  0  0  0  0  0  0  0  0  0
    9.5890    1.0961    2.3100 C   0  0  0  0  0  0  0  0  0  0  0  0
    8.6190    2.0761    2.2061 C   0  0  0  0  0  0  0  0  0  0  0  0
    7.4657    1.7537    1.5195 C   0  0  0  0  0  0  0  0  0  0  0  0
    6.0997   -0.6834   -0.8047 C   0  0  0  0  0  0  0  0  0  0  0  0
    4.9350   -0.9676   -1.4959 C   0  0  0  0  0  0  0  0  0  0  0  0
   -5.0338    1.4171    3.0709 H   0  0  0  0  0  0  0  0  0  0  0  0
   -5.0289    2.4263    0.3682 H   0  0  0  0  0  0  0  0  0  0  0  0
   -3.5987    1.9324    1.2978 H   0  0  0  0  0  0  0  0  0  0  0  0
   -4.4066   -0.2350    1.7469 H   0  0  0  0  0  0  0  0  0  0  0  0
   -6.5091   -1.1359    1.0731 H   0  0  0  0  0  0  0  0  0  0  0  0
   -7.9162    0.7716    1.9968 H   0  0  0  0  0  0  0  0  0  0  0  0
   -6.9934    1.5186   -0.3685 H   0  0  0  0  0  0  0  0  0  0  0  0
   -8.9184    0.1662   -1.0066 H   0  0  0  0  0  0  0  0  0  0  0  0
   -7.0686   -1.3550   -1.4067 H   0  0  0  0  0  0  0  0  0  0  0  0
   -6.5266    1.2048   -2.5248 H   0  0  0  0  0  0  0  0  0  0  0  0
   -4.8605   -1.7708   -1.2503 H   0  0  0  0  0  0  0  0  0  0  0  0
   -4.6523   -0.3915   -2.3363 H   0  0  0  0  0  0  0  0  0  0  0  0
   -2.6149   -0.4213    0.8359 H   0  0  0  0  0  0  0  0  0  0  0  0
   -3.4439   -1.7900    0.0834 H   0  0  0  0  0  0  0  0  0  0  0  0
   -2.8364   -1.1962   -2.1473 H   0  0  0  0  0  0  0  0  0  0  0  0
   -2.1016    0.3673   -1.6037 H   0  0  0  0  0  0  0  0  0  0  0  0
   -1.1225   -2.5086   -1.1952 H   0  0  0  0  0  0  0  0  0  0  0  0
   -0.4346   -1.2695   -2.2514 H   0  0  0  0  0  0  0  0  0  0  0  0
    0.8040   -2.8950   -0.1867 H   0  0  0  0  0  0  0  0  0  0  0  0
    1.9026   -1.7266    0.5572 H   0  0  0  0  0  0  0  0  0  0  0  0
    2.8262   -0.9531   -3.0181 H   0  0  0  0  0  0  0  0  0  0  0  0
    1.9000    0.1662   -2.0239 H   0  0  0  0  0  0  0  0  0  0  0  0
    2.7733    0.9912    0.1991 H   0  0  0  0  0  0  0  0  0  0  0  0
    4.8589    1.4751    1.4147 H   0  0  0  0  0  0  0  0  0  0  0  0
    8.1107   -1.4345    0.6278 H   0  0  0  0  0  0  0  0  0  0  0  0
   10.1907   -0.9292    1.8379 H   0  0  0  0  0  0  0  0  0  0  0  0
   10.4928    1.3521    2.8492 H   0  0  0  0  0  0  0  0  0  0  0  0
    8.7694    3.0655    2.6544 H   0  0  0  0  0  0  0  0  0  0  0  0
    6.6802    2.4881    1.4128 H   0  0  0  0  0  0  0  0  0  0  0  0
    7.0264   -1.1609   -1.0999 H   0  0  0  0  0  0  0  0  0  0  0  0
    4.9584   -1.6642   -2.3259 H   0  0  0  0  0  0  0  0  0  0  0  0
  1  2  1  0
  2  3  1  0
  3  4  1  0
  4  5  1  0
  4  6  1  0
  6  7  1  0
  6  8  1  0
  8  9  1  0
  8 10  1  0
 10 11  1  0
 11 12  1  0
 12 13  1  0
 13 14  1  0
 14 15  1  0
 15 16  1  0
 15 17  1  0
 15 18  1  0
 18 19  1  0
 19 20  1  0
 20 21  1  0
 21 22  2  0
 22 23  1  0
 23 24  2  0
 24 25  1  0
 25 26  2  0
 26 27  1  0
 27 28  2  0
 28 29  1  0
 29 30  2  0
 24 31  1  0
 31 32  2  0
 11  3  1  0
 32 21  1  0
 30 25  1  0
  1 33  1  0
  2 34  1  0
  2 35  1  0
  3 36  1  1
  4 37  1  1
  5 38  1  0
  6 39  1  6
  7 40  1  0
  8 41  1  6
  9 42  1  0
 10 43  1  0
 10 44  1  0
 12 45  1  0
 12 46  1  0
 13 47  1  0
 13 48  1  0
 14 49  1  0
 14 50  1  0
 18 51  1  0
 18 52  1  0
 20 53  1  0
 20 54  1  0
 22 55  1  0
 23 56  1  0
 26 57  1  0
 27 58  1  0
 28 59  1  0
 29 60  1  0
 30 61  1  0
 31 62  1  0
 32 63  1  0
M  END
$$$$
