@<TRIPOS>MOLECULE
*****
 63 65 0 0 0
SMALL
GASTEIGER

@<TRIPOS>ATOM
      1 O          -5.2672    2.1320    2.4270 O.3     1  UNL1       -0.3934
      2 C          -4.7109    1.7865    1.2169 C.3     1  UNL1        0.0622
      3 C          -4.9133    0.2987    0.8991 C.3     1  UNL1        0.0621
      4 C          -6.3689   -0.0184    0.9974 C.3     1  UNL1        0.1011
      5 O          -6.9756    0.5278    2.1022 O.3     1  UNL1       -0.3875
      6 C          -7.0877    0.4136   -0.2488 C.3     1  UNL1        0.1095
      7 O          -8.4516    0.0959   -0.1302 O.3     1  UNL1       -0.3866
      8 C          -6.5278   -0.3618   -1.3921 C.3     1  UNL1        0.0962
      9 O          -6.9001    0.2680   -2.5846 O.3     1  UNL1       -0.3879
     10 C          -5.0725   -0.6719   -1.3204 C.3     1  UNL1        0.0279
     11 N          -4.3067    0.0404   -0.3627 N.3     1  UNL1       -0.2923
     12 C          -3.0794   -0.7363   -0.0975 C.3     1  UNL1       -0.0004
     13 C          -2.2417   -0.7031   -1.3207 C.3     1  UNL1       -0.0347
     14 C          -0.9460   -1.4291   -1.2696 C.3     1  UNL1        0.0142
     15 C           0.0256   -0.9421   -0.2147 C.3     1  UNL1        0.2717
     16 F          -0.4807   -1.0528    1.0649 F       1  UNL1       -0.2032
     17 F           0.3245    0.3883   -0.3907 F       1  UNL1       -0.2032
     18 C           1.2343   -1.8595   -0.3266 C.3     1  UNL1        0.1112
     19 O           1.8655   -1.8534   -1.5186 O.3     1  UNL1       -0.3693
     20 C           2.5293   -0.7489   -1.9421 C.3     1  UNL1        0.0729
     21 C           3.7186   -0.3729   -1.1472 C.ar    1  UNL1       -0.0219
     22 C           3.6947    0.5011   -0.1050 C.ar    1  UNL1       -0.0558
     23 C           4.8836    0.7841    0.5922 C.ar    1  UNL1       -0.0537
     24 C           6.0756    0.2017    0.2511 C.ar    1  UNL1       -0.0179
     25 C           7.3237    0.4876    0.9706 C.ar    1  UNL1       -0.0179
     26 C           8.2792   -0.4797    1.0721 C.ar    1  UNL1       -0.0540
     27 C           9.4403   -0.1581    1.7623 C.ar    1  UNL1       -0.0612
     28 C           9.5890    1.0961    2.3100 C.ar    1  UNL1       -0.0617
     29 C           8.6190    2.0761    2.2061 C.ar    1  UNL1       -0.0612
     30 C           7.4657    1.7537    1.5195 C.ar    1  UNL1       -0.0540
     31 C           6.0997   -0.6834   -0.8047 C.ar    1  UNL1       -0.0537
     32 C           4.9350   -0.9676   -1.4959 C.ar    1  UNL1       -0.0558
     33 H          -5.0338    1.4171    3.0709 H       1  UNL1        0.2095
     34 H          -5.0289    2.4263    0.3682 H       1  UNL1        0.0573
     35 H          -3.5987    1.9324    1.2978 H       1  UNL1        0.0573
     36 H          -4.4066   -0.2350    1.7469 H       1  UNL1        0.0511
     37 H          -6.5091   -1.1359    1.0731 H       1  UNL1        0.0636
     38 H          -7.9162    0.7716    1.9968 H       1  UNL1        0.2100
     39 H          -6.9934    1.5186   -0.3685 H       1  UNL1        0.0646
     40 H          -8.9184    0.1662   -1.0066 H       1  UNL1        0.2100
     41 H          -7.0686   -1.3550   -1.4067 H       1  UNL1        0.0633
     42 H          -6.5266    1.2048   -2.5248 H       1  UNL1        0.2099
     43 H          -4.8605   -1.7708   -1.2503 H       1  UNL1        0.0453
     44 H          -4.6523   -0.3915   -2.3363 H       1  UNL1        0.0453
     45 H          -2.6149   -0.4213    0.8359 H       1  UNL1        0.0427
     46 H          -3.4439   -1.7900    0.0834 H       1  UNL1        0.0427
     47 H          -2.8364   -1.1962   -2.1473 H       1  UNL1        0.0279
     48 H          -2.1016    0.3673   -1.6037 H       1  UNL1        0.0279
     49 H          -1.1225   -2.5086   -1.1952 H       1  UNL1        0.0324
     50 H          -0.4346   -1.2695   -2.2514 H       1  UNL1        0.0324
     51 H           0.8040   -2.8950   -0.1867 H       1  UNL1        0.0619
     52 H           1.9026   -1.7266    0.5572 H       1  UNL1        0.0619
     53 H           2.8262   -0.9531   -3.0181 H       1  UNL1        0.0610
     54 H           1.9000    0.1662   -2.0239 H       1  UNL1        0.0610
     55 H           2.7733    0.9912    0.1991 H       1  UNL1        0.0621
     56 H           4.8589    1.4751    1.4147 H       1  UNL1        0.0624
     57 H           8.1107   -1.4345    0.6278 H       1  UNL1        0.0624
     58 H          10.1907   -0.9292    1.8379 H       1  UNL1        0.0618
     59 H          10.4928    1.3521    2.8492 H       1  UNL1        0.0618
     60 H           8.7694    3.0655    2.6544 H       1  UNL1        0.0618
     61 H           6.6802    2.4881    1.4128 H       1  UNL1        0.0624
     62 H           7.0264   -1.1609   -1.0999 H       1  UNL1        0.0624
     63 H           4.9584   -1.6642   -2.3259 H       1  UNL1        0.0621
@<TRIPOS>BOND
     1     1     2    1
     2     2     3    1
     3     3     4    1
     4     4     5    1
     5     4     6    1
     6     6     7    1
     7     6     8    1
     8     8     9    1
     9     8    10    1
    10    10    11    1
    11    11    12    1
    12    12    13    1
    13    13    14    1
    14    14    15    1
    15    15    16    1
    16    15    17    1
    17    15    18    1
    18    18    19    1
    19    19    20    1
    20    20    21    1
    21    21    22   ar
    22    22    23   ar
    23    23    24   ar
    24    24    25    1
    25    25    26   ar
    26    26    27   ar
    27    27    28   ar
    28    28    29   ar
    29    29    30   ar
    30    24    31   ar
    31    31    32   ar
    32    11     3    1
    33    32    21   ar
    34    30    25   ar
    35     1    33    1
    36     2    34    1
    37     2    35    1
    38     3    36    1
    39     4    37    1
    40     5    38    1
    41     6    39    1
    42     7    40    1
    43     8    41    1
    44     9    42    1
    45    10    43    1
    46    10    44    1
    47    12    45    1
    48    12    46    1
    49    13    47    1
    50    13    48    1
    51    14    49    1
    52    14    50    1
    53    18    51    1
    54    18    52    1
    55    20    53    1
    56    20    54    1
    57    22    55    1
    58    23    56    1
    59    26    57    1
    60    27    58    1
    61    28    59    1
    62    29    60    1
    63    30    61    1
    64    31    62    1
    65    32    63    1
