@<TRIPOS>MOLECULE
*****
 52 55 0 0 0
SMALL
GASTEIGER

@<TRIPOS>ATOM
      1 C          -2.1907   -2.5797    0.2430 C.3     1  UNL1       -0.0354
      2 C          -1.7052   -1.1325    0.0505 C.3     1  UNL1        0.0903
      3 C          -0.3777   -1.2695   -0.6144 C.ar    1  UNL1        0.0167
      4 C           0.7402   -0.8774    0.0804 C.ar    1  UNL1       -0.0323
      5 C           2.0452   -0.9537   -0.4309 C.ar    1  UNL1        0.0342
      6 N           3.1137   -0.5171    0.3863 N.am    1  UNL1       -0.2802
      7 C           4.4633   -0.5326    0.0152 C.2     1  UNL1        0.2666
      8 O           4.8277   -0.9483   -1.1032 O.2     1  UNL1       -0.2682
      9 C           5.4740   -0.0395    0.9864 C.ar    1  UNL1        0.1258
     10 C           6.8049   -0.0411    0.6546 C.ar    1  UNL1       -0.0285
     11 C           7.7794    0.4117    1.5350 C.ar    1  UNL1       -0.0228
     12 C           7.3765    0.8711    2.7708 C.ar    1  UNL1        0.1414
     13 F           8.3063    1.3237    3.6617 F       1  UNL1       -0.2039
     14 C           6.0361    0.8664    3.0894 C.ar    1  UNL1        0.0636
     15 N           5.1127    0.4120    2.1924 N.ar    1  UNL1       -0.2475
     16 C           2.1346   -1.4554   -1.6953 C.ar    1  UNL1       -0.0377
     17 C           1.0075   -1.8627   -2.4254 C.ar    1  UNL1       -0.0243
     18 C          -0.2540   -1.7733   -1.8923 C.ar    1  UNL1        0.1290
     19 F          -1.3708   -2.1509   -2.5494 F       1  UNL1       -0.2051
     20 C          -2.6030   -0.4121   -0.8856 C.3     1  UNL1       -0.0084
     21 C          -3.6099    0.5140   -0.3550 C.3     1  UNL1        0.0305
     22 C          -4.9633    0.4197   -1.0377 C.3     1  UNL1       -0.0142
     23 C          -5.0397    1.5530   -2.0695 C.3     1  UNL1        0.0489
     24 O          -5.1698    2.7735   -1.4196 O.3     1  UNL1       -0.3797
     25 C          -4.3138    2.9066   -0.3418 C.3     1  UNL1        0.0489
     26 C          -3.1472    1.9623   -0.5767 C.3     1  UNL1       -0.0142
     27 S          -3.9045    0.3671    1.4341 S.3     1  UNL1       -0.0841
     28 C          -2.2483    0.0591    2.0958 C.2     1  UNL1        0.1480
     29 N          -1.8549    0.5242    3.3698 N.pl3   1  UNL1       -0.3380
     30 N          -1.4939   -0.5995    1.3218 N.2     1  UNL1       -0.2524
     31 H          -2.7046   -2.6609    1.2342 H       1  UNL1        0.0256
     32 H          -2.9273   -2.8276   -0.5288 H       1  UNL1        0.0256
     33 H          -1.3352   -3.2820    0.2947 H       1  UNL1        0.0256
     34 H           0.6437   -0.4762    1.0978 H       1  UNL1        0.0640
     35 H           2.8952   -0.1388    1.3759 H       1  UNL1        0.1552
     36 H           7.1181   -0.3962   -0.3010 H       1  UNL1        0.0641
     37 H           8.8268    0.4145    1.2840 H       1  UNL1        0.0647
     38 H           5.7475    1.2320    4.0651 H       1  UNL1        0.0859
     39 H           3.0756   -1.5539   -2.1719 H       1  UNL1        0.0637
     40 H           1.1225   -2.2529   -3.4201 H       1  UNL1        0.0647
     41 H          -2.0120    0.1332   -1.6815 H       1  UNL1        0.0305
     42 H          -3.1538   -1.2031   -1.4784 H       1  UNL1        0.0305
     43 H          -5.1284   -0.5527   -1.5147 H       1  UNL1        0.0301
     44 H          -5.7778    0.6318   -0.3147 H       1  UNL1        0.0301
     45 H          -4.1935    1.5169   -2.7761 H       1  UNL1        0.0560
     46 H          -5.9620    1.4301   -2.6905 H       1  UNL1        0.0560
     47 H          -4.7848    2.6175    0.6218 H       1  UNL1        0.0560
     48 H          -3.9088    3.9374   -0.3186 H       1  UNL1        0.0560
     49 H          -2.6702    2.0971   -1.5496 H       1  UNL1        0.0301
     50 H          -2.3681    2.1303    0.2115 H       1  UNL1        0.0301
     51 H          -2.6138    0.7447    4.0590 H       1  UNL1        0.1442
     52 H          -0.8644    0.6398    3.6055 H       1  UNL1        0.1442
@<TRIPOS>BOND
     1     2     1    1
     2     2     3    1
     3     3     4   ar
     4     4     5   ar
     5     5     6    1
     6     6     7   am
     7     7     8    2
     8     7     9    1
     9     9    10   ar
    10    10    11   ar
    11    11    12   ar
    12    12    13    1
    13    12    14   ar
    14    14    15   ar
    15     5    16   ar
    16    16    17   ar
    17    17    18   ar
    18    18    19    1
    19     2    20    1
    20    20    21    1
    21    21    22    1
    22    22    23    1
    23    23    24    1
    24    24    25    1
    25    25    26    1
    26    21    27    1
    27    27    28    1
    28    28    29    1
    29    28    30    2
    30    30     2    1
    31    18     3   ar
    32    26    21    1
    33    15     9   ar
    34     1    31    1
    35     1    32    1
    36     1    33    1
    37     4    34    1
    38     6    35    1
    39    10    36    1
    40    11    37    1
    41    14    38    1
    42    16    39    1
    43    17    40    1
    44    20    41    1
    45    20    42    1
    46    22    43    1
    47    22    44    1
    48    23    45    1
    49    23    46    1
    50    25    47    1
    51    25    48    1
    52    26    49    1
    53    26    50    1
    54    29    51    1
    55    29    52    1
