@<TRIPOS>MOLECULE
*****
 60 62 0 0 0
SMALL
GASTEIGER

@<TRIPOS>ATOM
      1 C           6.8014   -0.6174   -0.3001 C.3     1  UNL1        0.0000
      2 C           6.6858    0.7545   -0.9294 C.3     1  UNL1        0.0000
      3 C           5.7460    0.8297   -2.0675 C.3     1  UNL1        0.0000
      4 C           4.3332    0.4295   -1.9055 C.3     1  UNL1        0.0000
      5 C           3.4060    1.0949   -0.9874 C.3     1  UNL1        0.0000
      6 C           3.7400    1.0213    0.4638 C.3     1  UNL1        0.0000
      7 C           2.6732    1.6931    1.3189 C.3     1  UNL1        0.0000
      8 C           1.3178    1.1400    1.2236 C.3     1  UNL1        0.0000
      9 C           1.1151   -0.2439    1.6732 C.ar    1  UNL1        0.0000
     10 C           1.9324   -1.1805    2.2622 C.ar    1  UNL1        0.0000
     11 C           1.2797   -2.3609    2.5453 C.ar    1  UNL1        0.0000
     12 C           0.0012   -2.1075    2.0978 C.ar    1  UNL1        0.0000
     13 C          -1.1681   -2.9807    2.0992 C.2     1  UNL1        0.0000
     14 C          -2.3149   -2.5573    1.6019 C.2     1  UNL1        0.0000
     15 C          -3.6006   -3.2308    1.4884 C.2     1  UNL1        0.0000
     16 C          -4.4032   -2.3825    0.9068 C.2     1  UNL1        0.0000
     17 C          -3.6970   -1.1016    0.6030 C.2     1  UNL1        0.0000
     18 C          -4.5935   -0.1317   -0.0608 C.3     1  UNL1        0.0000
     19 C          -4.0250    1.1423   -0.5197 C.3     1  UNL1        0.0000
     20 C          -5.0497    2.0748   -1.0976 C.3     1  UNL1        0.0000
     21 C          -5.8059    1.6043   -2.2802 C.3     1  UNL1        0.0000
     22 C          -6.6796    0.4367   -2.0909 C.2     1  UNL1        0.0000
     23 O          -7.5039   -0.6548   -1.9380 O.3     1  UNL1        0.0000
     24 O          -7.2355    0.1678   -3.1846 O.2     1  UNL1        0.0000
     25 N          -2.5107   -1.2775    1.0315 N.2     1  UNL1        1.0000
     26 B          -1.4018   -0.2785    1.0281 B       1  UNL1        0.0000
     27 F          -1.0603    0.2873   -0.2433 F       1  UNL1        0.0000
     28 F          -1.7891    0.7934    1.9602 F       1  UNL1        0.0000
     29 N          -0.0828   -0.8693    1.5920 N.ar    1  UNL1        0.0000
     30 H           6.2177   -1.3561   -0.8817 H       1  UNL1        0.0000
     31 H           6.3122   -0.5550    0.7096 H       1  UNL1        0.0000
     32 H           7.8481   -0.9322   -0.1231 H       1  UNL1        0.0000
     33 H           6.5995    1.5813   -0.2330 H       1  UNL1        0.0000
     34 H           7.7325    0.8943   -1.4435 H       1  UNL1        0.0000
     35 H           6.2151    0.2601   -2.9460 H       1  UNL1        0.0000
     36 H           5.8120    1.9071   -2.4717 H       1  UNL1        0.0000
     37 H           4.3828   -0.7024   -1.6713 H       1  UNL1        0.0000
     38 H           3.8801    0.4004   -2.9702 H       1  UNL1        0.0000
     39 H           3.3088    2.1850   -1.2560 H       1  UNL1        0.0000
     40 H           2.3606    0.6893   -1.1829 H       1  UNL1        0.0000
     41 H           4.6523    1.6721    0.6156 H       1  UNL1        0.0000
     42 H           3.9644    0.0322    0.8153 H       1  UNL1        0.0000
     43 H           3.0001    1.6644    2.3956 H       1  UNL1        0.0000
     44 H           2.6444    2.7477    0.9681 H       1  UNL1        0.0000
     45 H           0.5545    1.7696    1.7758 H       1  UNL1        0.0000
     46 H           0.9773    1.2756    0.1470 H       1  UNL1        0.0000
     47 H           2.9733   -1.0768    2.5214 H       1  UNL1        0.0000
     48 H           1.6418   -3.2596    2.9951 H       1  UNL1        0.0000
     49 H          -1.0739   -3.9809    2.5160 H       1  UNL1        0.0000
     50 H          -3.7671   -4.2366    1.8435 H       1  UNL1        0.0000
     51 H          -5.4219   -2.7425    0.7468 H       1  UNL1        0.0000
     52 H          -4.9760   -0.6688   -0.9999 H       1  UNL1        0.0000
     53 H          -5.5549    0.0176    0.5156 H       1  UNL1        0.0000
     54 H          -3.3076    0.9073   -1.3871 H       1  UNL1        0.0000
     55 H          -3.3662    1.6843    0.1883 H       1  UNL1        0.0000
     56 H          -5.8240    2.3449   -0.3090 H       1  UNL1        0.0000
     57 H          -4.5434    3.0384   -1.3498 H       1  UNL1        0.0000
     58 H          -5.0436    1.3322   -3.0599 H       1  UNL1        0.0000
     59 H          -6.3670    2.4483   -2.7708 H       1  UNL1        0.0000
     60 H          -7.9421   -0.8358   -1.0435 H       1  UNL1        0.0000
@<TRIPOS>UNITY_ATOM_ATTR
25 1
charge 1
26 1
charge -1
@<TRIPOS>BOND
     1     1     2    1
     2     2     3    1
     3     3     4    1
     4     4     5    1
     5     5     6    1
     6     6     7    1
     7     7     8    1
     8     8     9    1
     9     9    10   ar
    10    10    11   ar
    11    11    12   ar
    12    12    13    1
    13    13    14    2
    14    14    15    1
    15    15    16    2
    16    16    17    1
    17    17    18    1
    18    18    19    1
    19    19    20    1
    20    20    21    1
    21    21    22    1
    22    22    23    1
    23    22    24    2
    24    17    25    2
    25    25    26    1
    26    26    27    1
    27    26    28    1
    28    26    29    1
    29    29     9   ar
    30    29    12   ar
    31    25    14    1
    32     1    30    1
    33     1    31    1
    34     1    32    1
    35     2    33    1
    36     2    34    1
    37     3    35    1
    38     3    36    1
    39     4    37    1
    40     4    38    1
    41     5    39    1
    42     5    40    1
    43     6    41    1
    44     6    42    1
    45     7    43    1
    46     7    44    1
    47     8    45    1
    48     8    46    1
    49    10    47    1
    50    11    48    1
    51    13    49    1
    52    15    50    1
    53    16    51    1
    54    18    52    1
    55    18    53    1
    56    19    54    1
    57    19    55    1
    58    20    56    1
    59    20    57    1
    60    21    58    1
    61    21    59    1
    62    23    60    1
