
     RDKit          3D

 60 62  0  0  0  0  0  0  0  0999 V2000
    6.8014   -0.6174   -0.3001 C   0  0  0  0  0  0  0  0  0  0  0  0
    6.6858    0.7545   -0.9294 C   0  0  0  0  0  0  0  0  0  0  0  0
    5.7460    0.8297   -2.0675 C   0  0  0  0  0  0  0  0  0  0  0  0
    4.3332    0.4295   -1.9055 C   0  0  0  0  0  0  0  0  0  0  0  0
    3.4060    1.0949   -0.9874 C   0  0  0  0  0  0  0  0  0  0  0  0
    3.7400    1.0213    0.4638 C   0  0  0  0  0  0  0  0  0  0  0  0
    2.6732    1.6931    1.3189 C   0  0  0  0  0  0  0  0  0  0  0  0
    1.3178    1.1400    1.2236 C   0  0  0  0  0  0  0  0  0  0  0  0
    1.1151   -0.2439    1.6732 C   0  0  0  0  0  0  0  0  0  0  0  0
    1.9324   -1.1805    2.2622 C   0  0  0  0  0  0  0  0  0  0  0  0
    1.2797   -2.3609    2.5453 C   0  0  0  0  0  0  0  0  0  0  0  0
    0.0012   -2.1075    2.0978 C   0  0  0  0  0  0  0  0  0  0  0  0
   -1.1681   -2.9807    2.0992 C   0  0  0  0  0  0  0  0  0  0  0  0
   -2.3149   -2.5573    1.6019 C   0  0  0  0  0  0  0  0  0  0  0  0
   -3.6006   -3.2308    1.4884 C   0  0  0  0  0  0  0  0  0  0  0  0
   -4.4032   -2.3825    0.9068 C   0  0  0  0  0  0  0  0  0  0  0  0
   -3.6970   -1.1016    0.6030 C   0  0  0  0  0  0  0  0  0  0  0  0
   -4.5935   -0.1317   -0.0608 C   0  0  0  0  0  0  0  0  0  0  0  0
   -4.0250    1.1423   -0.5197 C   0  0  0  0  0  0  0  0  0  0  0  0
   -5.0497    2.0748   -1.0976 C   0  0  0  0  0  0  0  0  0  0  0  0
   -5.8059    1.6043   -2.2802 C   0  0  0  0  0  0  0  0  0  0  0  0
   -6.6796    0.4367   -2.0909 C   0  0  0  0  0  0  0  0  0  0  0  0
   -7.5039   -0.6548   -1.9380 O   0  0  0  0  0  0  0  0  0  0  0  0
   -7.2355    0.1678   -3.1846 O   0  0  0  0  0  0  0  0  0  0  0  0
   -2.5107   -1.2775    1.0315 N   0  0  0  0  0  4  0  0  0  0  0  0
   -1.4018   -0.2785    1.0281 B   0  0  0  0  0  4  0  0  0  0  0  0
   -1.0603    0.2873   -0.2433 F   0  0  0  0  0  0  0  0  0  0  0  0
   -1.7891    0.7934    1.9602 F   0  0  0  0  0  0  0  0  0  0  0  0
   -0.0828   -0.8693    1.5920 N   0  0  0  0  0  0  0  0  0  0  0  0
    6.2177   -1.3561   -0.8817 H   0  0  0  0  0  0  0  0  0  0  0  0
    6.3122   -0.5550    0.7096 H   0  0  0  0  0  0  0  0  0  0  0  0
    7.8481   -0.9322   -0.1231 H   0  0  0  0  0  0  0  0  0  0  0  0
    6.5995    1.5813   -0.2330 H   0  0  0  0  0  0  0  0  0  0  0  0
    7.7325    0.8943   -1.4435 H   0  0  0  0  0  0  0  0  0  0  0  0
    6.2151    0.2601   -2.9460 H   0  0  0  0  0  0  0  0  0  0  0  0
    5.8120    1.9071   -2.4717 H   0  0  0  0  0  0  0  0  0  0  0  0
    4.3828   -0.7024   -1.6713 H   0  0  0  0  0  0  0  0  0  0  0  0
    3.8801    0.4004   -2.9702 H   0  0  0  0  0  0  0  0  0  0  0  0
    3.3088    2.1850   -1.2560 H   0  0  0  0  0  0  0  0  0  0  0  0
    2.3606    0.6893   -1.1829 H   0  0  0  0  0  0  0  0  0  0  0  0
    4.6523    1.6721    0.6156 H   0  0  0  0  0  0  0  0  0  0  0  0
    3.9644    0.0322    0.8153 H   0  0  0  0  0  0  0  0  0  0  0  0
    3.0001    1.6644    2.3956 H   0  0  0  0  0  0  0  0  0  0  0  0
    2.6444    2.7477    0.9681 H   0  0  0  0  0  0  0  0  0  0  0  0
    0.5545    1.7696    1.7758 H   0  0  0  0  0  0  0  0  0  0  0  0
    0.9773    1.2756    0.1470 H   0  0  0  0  0  0  0  0  0  0  0  0
    2.9733   -1.0768    2.5214 H   0  0  0  0  0  0  0  0  0  0  0  0
    1.6418   -3.2596    2.9951 H   0  0  0  0  0  0  0  0  0  0  0  0
   -1.0739   -3.9809    2.5160 H   0  0  0  0  0  0  0  0  0  0  0  0
   -3.7671   -4.2366    1.8435 H   0  0  0  0  0  0  0  0  0  0  0  0
   -5.4219   -2.7425    0.7468 H   0  0  0  0  0  0  0  0  0  0  0  0
   -4.9760   -0.6688   -0.9999 H   0  0  0  0  0  0  0  0  0  0  0  0
   -5.5549    0.0176    0.5156 H   0  0  0  0  0  0  0  0  0  0  0  0
   -3.3076    0.9073   -1.3871 H   0  0  0  0  0  0  0  0  0  0  0  0
   -3.3662    1.6843    0.1883 H   0  0  0  0  0  0  0  0  0  0  0  0
   -5.8240    2.3449   -0.3090 H   0  0  0  0  0  0  0  0  0  0  0  0
   -4.5434    3.0384   -1.3498 H   0  0  0  0  0  0  0  0  0  0  0  0
   -5.0436    1.3322   -3.0599 H   0  0  0  0  0  0  0  0  0  0  0  0
   -6.3670    2.4483   -2.7708 H   0  0  0  0  0  0  0  0  0  0  0  0
   -7.9421   -0.8358   -1.0435 H   0  0  0  0  0  0  0  0  0  0  0  0
  1  2  1  0
  2  3  1  0
  3  4  1  0
  4  5  1  0
  5  6  1  0
  6  7  1  0
  7  8  1  0
  8  9  1  0
  9 10  2  0
 10 11  1  0
 11 12  2  0
 12 13  1  0
 13 14  2  0
 14 15  1  0
 15 16  2  0
 16 17  1  0
 17 18  1  0
 18 19  1  0
 19 20  1  0
 20 21  1  0
 21 22  1  0
 22 23  1  0
 22 24  2  0
 17 25  2  0
 25 26  1  0
 26 27  1  0
 26 28  1  0
 26 29  1  0
 29  9  1  0
 29 12  1  0
 25 14  1  0
  1 30  1  0
  1 31  1  0
  1 32  1  0
  2 33  1  0
  2 34  1  0
  3 35  1  0
  3 36  1  0
  4 37  1  0
  4 38  1  0
  5 39  1  0
  5 40  1  0
  6 41  1  0
  6 42  1  0
  7 43  1  0
  7 44  1  0
  8 45  1  0
  8 46  1  0
 10 47  1  0
 11 48  1  0
 13 49  1  0
 15 50  1  0
 16 51  1  0
 18 52  1  0
 18 53  1  0
 19 54  1  0
 19 55  1  0
 20 56  1  0
 20 57  1  0
 21 58  1  0
 21 59  1  0
 23 60  1  0
M  CHG  2  25   1  26  -1
M  END
$$$$
