@<TRIPOS>MOLECULE
*****
 57 59 0 0 0
SMALL
GASTEIGER

@<TRIPOS>ATOM
      1 C           7.8994    1.0774   -1.9017 C.3     1  UNL1        0.0788
      2 O           7.1462   -0.0533   -1.5067 O.3     1  UNL1       -0.4948
      3 C           5.7918    0.0808   -1.2726 C.ar    1  UNL1        0.1230
      4 C           5.1294    1.2953   -1.4105 C.ar    1  UNL1       -0.0191
      5 C           3.7809    1.4079   -1.1727 C.ar    1  UNL1       -0.0506
      6 C           3.0288    0.3193   -0.7871 C.ar    1  UNL1       -0.0174
      7 C           1.5981    0.3758   -0.5212 C.ar    1  UNL1       -0.0171
      8 C           0.8176   -0.7300   -0.7703 C.ar    1  UNL1       -0.0505
      9 C          -0.5595   -0.6945   -0.5211 C.ar    1  UNL1       -0.0188
     10 C          -1.1409    0.4624   -0.0192 C.ar    1  UNL1        0.1283
     11 O          -2.4562    0.5896    0.2489 O.3     1  UNL1       -0.4901
     12 C          -3.5519   -0.2225    0.1740 C.3     1  UNL1        0.1023
     13 C          -3.4562   -1.3910    1.0939 C.3     1  UNL1        0.0334
     14 N          -4.6135   -2.2661    1.0209 N.3     1  UNL1       -0.2923
     15 C          -4.3715   -3.3442    1.9699 C.3     1  UNL1       -0.0121
     16 C          -4.8671   -2.7844   -0.2826 C.3     1  UNL1        0.0966
     17 C          -6.0564   -3.6624   -0.2413 C.2     1  UNL1        0.3189
     18 O          -6.6451   -3.8250    0.8532 O.2     1  UNL1       -0.2496
     19 O          -6.5163   -4.2975   -1.3924 O.3     1  UNL1       -0.4797
     20 C          -0.3404    1.5844    0.2318 C.ar    1  UNL1        0.0258
     21 C          -0.9768    2.7792    0.7556 C.ar    1  UNL1        0.0039
     22 C          -1.0419    2.8781    2.1475 C.ar    1  UNL1       -0.0525
     23 C          -1.6220    3.9656    2.7458 C.ar    1  UNL1       -0.0611
     24 C          -2.1393    4.9583    1.9502 C.ar    1  UNL1       -0.0603
     25 C          -2.0774    4.8652    0.5765 C.ar    1  UNL1       -0.0428
     26 C          -1.4939    3.7717   -0.0386 C.ar    1  UNL1        0.0488
     27 CL         -1.3966    3.6181   -1.7650 Cl      1  UNL1       -0.0829
     28 C           1.0062    1.5275   -0.0200 C.ar    1  UNL1       -0.0428
     29 C           3.7216   -0.8874   -0.6568 C.ar    1  UNL1       -0.0476
     30 C           5.0593   -1.0119   -0.8899 C.ar    1  UNL1       -0.0082
     31 C           5.7077   -2.3383   -0.7249 C.3     1  UNL1       -0.0362
     32 H           7.4080    1.6032   -2.7446 H       1  UNL1        0.0660
     33 H           7.9403    1.7830   -1.0285 H       1  UNL1        0.0660
     34 H           8.9255    0.7921   -2.2206 H       1  UNL1        0.0660
     35 H           5.7145    2.1395   -1.7100 H       1  UNL1        0.0654
     36 H           3.2634    2.3601   -1.2813 H       1  UNL1        0.0625
     37 H           1.2782   -1.6326   -1.1626 H       1  UNL1        0.0625
     38 H          -1.1314   -1.5722   -0.7450 H       1  UNL1        0.0654
     39 H          -4.4738    0.4016    0.3835 H       1  UNL1        0.0709
     40 H          -3.6896   -0.5205   -0.8936 H       1  UNL1        0.0709
     41 H          -3.5226   -0.9546    2.1473 H       1  UNL1        0.0460
     42 H          -2.5017   -1.8896    1.0456 H       1  UNL1        0.0460
     43 H          -5.1799   -3.3123    2.7304 H       1  UNL1        0.0391
     44 H          -3.4150   -3.2542    2.4884 H       1  UNL1        0.0391
     45 H          -4.4409   -4.3354    1.4501 H       1  UNL1        0.0391
     46 H          -5.1582   -1.9261   -0.9531 H       1  UNL1        0.0541
     47 H          -3.9882   -3.2780   -0.7451 H       1  UNL1        0.0541
     48 H          -7.4560   -4.6854   -1.4382 H       1  UNL1        0.2951
     49 H          -0.6350    2.0973    2.7779 H       1  UNL1        0.0624
     50 H          -1.6659    4.0296    3.8395 H       1  UNL1        0.0618
     51 H          -2.5952    5.8128    2.4113 H       1  UNL1        0.0618
     52 H          -2.5019    5.6791   -0.0240 H       1  UNL1        0.0632
     53 H           1.6693    2.3883    0.1641 H       1  UNL1        0.0631
     54 H           3.1541   -1.7597   -0.3547 H       1  UNL1        0.0627
     55 H           6.2197   -2.6743   -1.6507 H       1  UNL1        0.0279
     56 H           6.4468   -2.2356    0.0845 H       1  UNL1        0.0279
     57 H           4.9714   -3.1043   -0.4437 H       1  UNL1        0.0279
@<TRIPOS>BOND
     1     1     2    1
     2     2     3    1
     3     3     4   ar
     4     4     5   ar
     5     5     6   ar
     6     6     7    1
     7     7     8   ar
     8     8     9   ar
     9     9    10   ar
    10    10    11    1
    11    11    12    1
    12    12    13    1
    13    13    14    1
    14    14    15    1
    15    14    16    1
    16    16    17    1
    17    17    18    2
    18    17    19    1
    19    10    20   ar
    20    20    21    1
    21    21    22   ar
    22    22    23   ar
    23    23    24   ar
    24    24    25   ar
    25    25    26   ar
    26    26    27    1
    27    20    28   ar
    28     6    29   ar
    29    29    30   ar
    30    30    31    1
    31    30     3   ar
    32    28     7   ar
    33    26    21   ar
    34     1    32    1
    35     1    33    1
    36     1    34    1
    37     4    35    1
    38     5    36    1
    39     8    37    1
    40     9    38    1
    41    12    39    1
    42    12    40    1
    43    13    41    1
    44    13    42    1
    45    15    43    1
    46    15    44    1
    47    15    45    1
    48    16    46    1
    49    16    47    1
    50    19    48    1
    51    22    49    1
    52    23    50    1
    53    24    51    1
    54    25    52    1
    55    28    53    1
    56    29    54    1
    57    31    55    1
    58    31    56    1
    59    31    57    1
