
     RDKit          3D

 57 59  0  0  0  0  0  0  0  0999 V2000
    7.8994    1.0774   -1.9017 C   0  0  0  0  0  0  0  0  0  0  0  0
    7.1462   -0.0533   -1.5067 O   0  0  0  0  0  0  0  0  0  0  0  0
    5.7918    0.0808   -1.2726 C   0  0  0  0  0  0  0  0  0  0  0  0
    5.1294    1.2953   -1.4105 C   0  0  0  0  0  0  0  0  0  0  0  0
    3.7809    1.4079   -1.1727 C   0  0  0  0  0  0  0  0  0  0  0  0
    3.0288    0.3193   -0.7871 C   0  0  0  0  0  0  0  0  0  0  0  0
    1.5981    0.3758   -0.5212 C   0  0  0  0  0  0  0  0  0  0  0  0
    0.8176   -0.7300   -0.7703 C   0  0  0  0  0  0  0  0  0  0  0  0
   -0.5595   -0.6945   -0.5211 C   0  0  0  0  0  0  0  0  0  0  0  0
   -1.1409    0.4624   -0.0192 C   0  0  0  0  0  0  0  0  0  0  0  0
   -2.4562    0.5896    0.2489 O   0  0  0  0  0  0  0  0  0  0  0  0
   -3.5519   -0.2225    0.1740 C   0  0  0  0  0  0  0  0  0  0  0  0
   -3.4562   -1.3910    1.0939 C   0  0  0  0  0  0  0  0  0  0  0  0
   -4.6135   -2.2661    1.0209 N   0  0  0  0  0  0  0  0  0  0  0  0
   -4.3715   -3.3442    1.9699 C   0  0  0  0  0  0  0  0  0  0  0  0
   -4.8671   -2.7844   -0.2826 C   0  0  0  0  0  0  0  0  0  0  0  0
   -6.0564   -3.6624   -0.2413 C   0  0  0  0  0  0  0  0  0  0  0  0
   -6.6451   -3.8250    0.8532 O   0  0  0  0  0  0  0  0  0  0  0  0
   -6.5163   -4.2975   -1.3924 O   0  0  0  0  0  0  0  0  0  0  0  0
   -0.3404    1.5844    0.2318 C   0  0  0  0  0  0  0  0  0  0  0  0
   -0.9768    2.7792    0.7556 C   0  0  0  0  0  0  0  0  0  0  0  0
   -1.0419    2.8781    2.1475 C   0  0  0  0  0  0  0  0  0  0  0  0
   -1.6220    3.9656    2.7458 C   0  0  0  0  0  0  0  0  0  0  0  0
   -2.1393    4.9583    1.9502 C   0  0  0  0  0  0  0  0  0  0  0  0
   -2.0774    4.8652    0.5765 C   0  0  0  0  0  0  0  0  0  0  0  0
   -1.4939    3.7717   -0.0386 C   0  0  0  0  0  0  0  0  0  0  0  0
   -1.3966    3.6181   -1.7650 Cl  0  0  0  0  0  0  0  0  0  0  0  0
    1.0062    1.5275   -0.0200 C   0  0  0  0  0  0  0  0  0  0  0  0
    3.7216   -0.8874   -0.6568 C   0  0  0  0  0  0  0  0  0  0  0  0
    5.0593   -1.0119   -0.8899 C   0  0  0  0  0  0  0  0  0  0  0  0
    5.7077   -2.3383   -0.7249 C   0  0  0  0  0  0  0  0  0  0  0  0
    7.4080    1.6032   -2.7446 H   0  0  0  0  0  0  0  0  0  0  0  0
    7.9403    1.7830   -1.0285 H   0  0  0  0  0  0  0  0  0  0  0  0
    8.9255    0.7921   -2.2206 H   0  0  0  0  0  0  0  0  0  0  0  0
    5.7145    2.1395   -1.7100 H   0  0  0  0  0  0  0  0  0  0  0  0
    3.2634    2.3601   -1.2813 H   0  0  0  0  0  0  0  0  0  0  0  0
    1.2782   -1.6326   -1.1626 H   0  0  0  0  0  0  0  0  0  0  0  0
   -1.1314   -1.5722   -0.7450 H   0  0  0  0  0  0  0  0  0  0  0  0
   -4.4738    0.4016    0.3835 H   0  0  0  0  0  0  0  0  0  0  0  0
   -3.6896   -0.5205   -0.8936 H   0  0  0  0  0  0  0  0  0  0  0  0
   -3.5226   -0.9546    2.1473 H   0  0  0  0  0  0  0  0  0  0  0  0
   -2.5017   -1.8896    1.0456 H   0  0  0  0  0  0  0  0  0  0  0  0
   -5.1799   -3.3123    2.7304 H   0  0  0  0  0  0  0  0  0  0  0  0
   -3.4150   -3.2542    2.4884 H   0  0  0  0  0  0  0  0  0  0  0  0
   -4.4409   -4.3354    1.4501 H   0  0  0  0  0  0  0  0  0  0  0  0
   -5.1582   -1.9261   -0.9531 H   0  0  0  0  0  0  0  0  0  0  0  0
   -3.9882   -3.2780   -0.7451 H   0  0  0  0  0  0  0  0  0  0  0  0
   -7.4560   -4.6854   -1.4382 H   0  0  0  0  0  0  0  0  0  0  0  0
   -0.6350    2.0973    2.7779 H   0  0  0  0  0  0  0  0  0  0  0  0
   -1.6659    4.0296    3.8395 H   0  0  0  0  0  0  0  0  0  0  0  0
   -2.5952    5.8128    2.4113 H   0  0  0  0  0  0  0  0  0  0  0  0
   -2.5019    5.6791   -0.0240 H   0  0  0  0  0  0  0  0  0  0  0  0
    1.6693    2.3883    0.1641 H   0  0  0  0  0  0  0  0  0  0  0  0
    3.1541   -1.7597   -0.3547 H   0  0  0  0  0  0  0  0  0  0  0  0
    6.2197   -2.6743   -1.6507 H   0  0  0  0  0  0  0  0  0  0  0  0
    6.4468   -2.2356    0.0845 H   0  0  0  0  0  0  0  0  0  0  0  0
    4.9714   -3.1043   -0.4437 H   0  0  0  0  0  0  0  0  0  0  0  0
  1  2  1  0
  2  3  1  0
  3  4  2  0
  4  5  1  0
  5  6  2  0
  6  7  1  0
  7  8  2  0
  8  9  1  0
  9 10  2  0
 10 11  1  0
 11 12  1  0
 12 13  1  0
 13 14  1  0
 14 15  1  0
 14 16  1  0
 16 17  1  0
 17 18  2  0
 17 19  1  0
 10 20  1  0
 20 21  1  0
 21 22  2  0
 22 23  1  0
 23 24  2  0
 24 25  1  0
 25 26  2  0
 26 27  1  0
 20 28  2  0
  6 29  1  0
 29 30  2  0
 30 31  1  0
 30  3  1  0
 28  7  1  0
 26 21  1  0
  1 32  1  0
  1 33  1  0
  1 34  1  0
  4 35  1  0
  5 36  1  0
  8 37  1  0
  9 38  1  0
 12 39  1  0
 12 40  1  0
 13 41  1  0
 13 42  1  0
 15 43  1  0
 15 44  1  0
 15 45  1  0
 16 46  1  0
 16 47  1  0
 19 48  1  0
 22 49  1  0
 23 50  1  0
 24 51  1  0
 25 52  1  0
 28 53  1  0
 29 54  1  0
 31 55  1  0
 31 56  1  0
 31 57  1  0
M  END
$$$$
