@<TRIPOS>MOLECULE
*****
 58 61 0 0 0
SMALL
GASTEIGER

@<TRIPOS>ATOM
      1 CL         11.1027   -1.8760    2.9313 Cl      1  UNL1       -0.0835
      2 C          10.1720   -0.8175    1.8911 C.ar    1  UNL1        0.0417
      3 C           8.8341   -1.0097    1.6350 C.ar    1  UNL1       -0.0342
      4 C           8.1420   -0.1596    0.8160 C.ar    1  UNL1        0.0018
      5 C           8.7601    0.9195    0.2183 C.ar    1  UNL1        0.0471
      6 N           7.8956    1.6320   -0.5521 N.ar    1  UNL1       -0.3506
      7 C           6.7160    0.9893   -0.4357 C.ar    1  UNL1        0.1028
      8 C           6.8330   -0.1091    0.3931 C.ar    1  UNL1       -0.0241
      9 C           5.4821    1.4179   -1.1099 C.2     1  UNL1        0.2604
     10 O           5.5294    2.4517   -1.8433 O.2     1  UNL1       -0.2686
     11 N           4.2779    0.6822   -0.9334 N.am    1  UNL1       -0.3080
     12 C           3.1781    1.2753   -1.6869 C.3     1  UNL1        0.0354
     13 C           1.9516    0.4492   -1.4517 C.3     1  UNL1        0.0633
     14 O           1.6439    0.4385   -0.0764 O.3     1  UNL1       -0.3760
     15 C           0.4687   -0.3760   -0.0044 C.3     1  UNL1        0.0711
     16 C           0.0053   -0.4911    1.4048 C.3     1  UNL1        0.0711
     17 O          -1.0539   -1.2306    1.6286 O.3     1  UNL1       -0.3760
     18 C          -2.2936   -1.1497    1.2365 C.3     1  UNL1        0.0633
     19 C          -2.7211   -1.2642   -0.1870 C.3     1  UNL1        0.0354
     20 N          -4.2046   -1.1488   -0.2892 N.am    1  UNL1       -0.3080
     21 C          -4.9680   -0.0203    0.1101 C.2     1  UNL1        0.2604
     22 O          -4.4310    1.0061    0.5958 O.2     1  UNL1       -0.2686
     23 C          -6.4178   -0.0361   -0.0410 C.ar    1  UNL1        0.1028
     24 C          -7.1961   -1.0736   -0.5555 C.ar    1  UNL1       -0.0241
     25 C          -8.5264   -0.7074   -0.5338 C.ar    1  UNL1        0.0018
     26 C          -8.5300    0.5639    0.0013 C.ar    1  UNL1        0.0471
     27 N          -7.2787    0.9426    0.2854 N.ar    1  UNL1       -0.3506
     28 C          -9.7422    1.2162    0.1552 C.ar    1  UNL1       -0.0364
     29 C         -10.8977    0.5835   -0.2263 C.ar    1  UNL1       -0.0414
     30 C         -10.9294   -0.7033   -0.7714 C.ar    1  UNL1        0.0417
     31 CL        -12.4189   -1.4907   -1.2514 Cl      1  UNL1       -0.0835
     32 C          -9.6954   -1.3377   -0.9157 C.ar    1  UNL1       -0.0342
     33 C          10.1096    1.1679    0.4372 C.ar    1  UNL1       -0.0364
     34 C          10.7608    0.2791    1.2721 C.ar    1  UNL1       -0.0414
     35 H           8.3186   -1.8376    2.0814 H       1  UNL1        0.0639
     36 H           8.1127    2.4858   -1.1053 H       1  UNL1        0.1660
     37 H           6.0110   -0.7894    0.6422 H       1  UNL1        0.0646
     38 H           4.2175   -0.1699   -0.3352 H       1  UNL1        0.1491
     39 H           2.9558    2.3067   -1.3233 H       1  UNL1        0.0485
     40 H           3.3860    1.3078   -2.7741 H       1  UNL1        0.0485
     41 H           1.1158    0.8707   -2.0564 H       1  UNL1        0.0575
     42 H           2.0837   -0.6031   -1.7958 H       1  UNL1        0.0575
     43 H           0.6843   -1.3714   -0.4042 H       1  UNL1        0.0583
     44 H          -0.2771    0.1990   -0.5895 H       1  UNL1        0.0583
     45 H          -0.1873    0.5706    1.8307 H       1  UNL1        0.0583
     46 H           0.9243   -0.8325    2.0150 H       1  UNL1        0.0583
     47 H          -2.9151   -1.8768    1.8770 H       1  UNL1        0.0575
     48 H          -2.6932   -0.1189    1.5894 H       1  UNL1        0.0575
     49 H          -2.4685   -2.2566   -0.5527 H       1  UNL1        0.0485
     50 H          -2.3121   -0.4971   -0.8551 H       1  UNL1        0.0485
     51 H          -4.7686   -1.9592   -0.6891 H       1  UNL1        0.1491
     52 H          -6.8486   -2.0365   -0.9263 H       1  UNL1        0.0646
     53 H          -7.0341    1.8567    0.6948 H       1  UNL1        0.1660
     54 H          -9.7982    2.2302    0.5767 H       1  UNL1        0.0639
     55 H         -11.8605    1.0623   -0.1207 H       1  UNL1        0.0633
     56 H          -9.6372   -2.3509   -1.3366 H       1  UNL1        0.0639
     57 H          10.6127    1.9971   -0.0138 H       1  UNL1        0.0639
     58 H          11.8198    0.5009    1.4244 H       1  UNL1        0.0633
@<TRIPOS>BOND
     1     1     2    1
     2     2     3   ar
     3     3     4   ar
     4     4     5   ar
     5     5     6   ar
     6     6     7   ar
     7     7     8   ar
     8     7     9    1
     9     9    10    2
    10     9    11   am
    11    11    12    1
    12    12    13    1
    13    13    14    1
    14    14    15    1
    15    15    16    1
    16    16    17    1
    17    17    18    1
    18    18    19    1
    19    19    20    1
    20    20    21   am
    21    21    22    2
    22    21    23    1
    23    23    24   ar
    24    24    25   ar
    25    25    26   ar
    26    26    27   ar
    27    26    28   ar
    28    28    29   ar
    29    29    30   ar
    30    30    31    1
    31    30    32   ar
    32     5    33   ar
    33    33    34   ar
    34    34     2   ar
    35     8     4   ar
    36    27    23   ar
    37    32    25   ar
    38     3    35    1
    39     6    36    1
    40     8    37    1
    41    11    38    1
    42    12    39    1
    43    12    40    1
    44    13    41    1
    45    13    42    1
    46    15    43    1
    47    15    44    1
    48    16    45    1
    49    16    46    1
    50    18    47    1
    51    18    48    1
    52    19    49    1
    53    19    50    1
    54    20    51    1
    55    24    52    1
    56    27    53    1
    57    28    54    1
    58    29    55    1
    59    32    56    1
    60    33    57    1
    61    34    58    1
