@<TRIPOS>MOLECULE
*****
 24 23 0 0 0
SMALL
GASTEIGER

@<TRIPOS>ATOM
      1 N           1.8710   -1.1262    0.8254 N.3     1  UNL1       -0.3299
      2 C           1.9555    0.1846    0.2588 C.3     1  UNL1       -0.0031
      3 C           1.1035    0.3496   -0.9777 C.3     1  UNL1        0.0115
      4 C          -0.3614    0.1188   -0.7583 C.3     1  UNL1        0.2682
      5 O          -0.9788    0.3163   -2.0107 O.3     1  UNL1       -0.3671
      6 P          -0.7924   -1.5064   -0.1653 P.3     1  UNL1        0.3710
      7 O          -0.7442   -1.5295    1.5139 O.3     1  UNL1       -0.3217
      8 O          -2.4343   -1.7562   -0.5842 O.3     1  UNL1       -0.3217
      9 O          -0.0278   -2.6308   -0.8089 O.2     1  UNL1       -0.2551
     10 P          -1.0963    1.3434    0.3455 P.3     1  UNL1        0.3710
     11 O          -0.3836    1.2820    1.8870 O.3     1  UNL1       -0.3217
     12 O          -0.9750    2.8684   -0.3620 O.3     1  UNL1       -0.3217
     13 O          -2.5469    0.9468    0.5531 O.2     1  UNL1       -0.2551
     14 H           1.9562   -1.1451    1.8646 H       1  UNL1        0.1182
     15 H           2.5899   -1.7880    0.4496 H       1  UNL1        0.1182
     16 H           1.7531    0.9853    0.9867 H       1  UNL1        0.0423
     17 H           2.9997    0.3254   -0.0981 H       1  UNL1        0.0423
     18 H           1.2086    1.3869   -1.3572 H       1  UNL1        0.0317
     19 H           1.4839   -0.3155   -1.7789 H       1  UNL1        0.0317
     20 H          -0.4758   -0.1675   -2.6978 H       1  UNL1        0.2117
     21 H          -1.4244   -2.1796    1.8685 H       1  UNL1        0.2198
     22 H          -2.5702   -1.5916   -1.5511 H       1  UNL1        0.2198
     23 H          -0.7711    2.0456    2.3953 H       1  UNL1        0.2198
     24 H          -1.3395    3.5833    0.2018 H       1  UNL1        0.2198
@<TRIPOS>BOND
     1     1     2    1
     2     2     3    1
     3     3     4    1
     4     4     5    1
     5     4     6    1
     6     6     7    1
     7     6     8    1
     8     6     9    2
     9     4    10    1
    10    10    11    1
    11    10    12    1
    12    10    13    2
    13     1    14    1
    14     1    15    1
    15     2    16    1
    16     2    17    1
    17     3    18    1
    18     3    19    1
    19     5    20    1
    20     7    21    1
    21     8    22    1
    22    11    23    1
    23    12    24    1
