@<TRIPOS>MOLECULE
*****
 49 52 0 0 0
SMALL
GASTEIGER

@<TRIPOS>ATOM
      1 C           6.2383    0.6515   -0.1647 C.3     1  UNL1       -0.0127
      2 N           4.8952    1.1523    0.0295 N.3     1  UNL1       -0.3029
      3 C           4.1571    1.1125   -1.2218 C.3     1  UNL1        0.0114
      4 C           2.6811    0.8318   -0.9768 C.3     1  UNL1        0.0117
      5 N           2.4814   -0.4561   -0.3868 N.3     1  UNL1       -0.2999
      6 C           1.3826   -0.5128    0.5571 C.3     1  UNL1        0.0004
      7 C           0.0372   -0.3390   -0.1631 C.3     1  UNL1       -0.0240
      8 C          -1.0158   -0.4123    0.8944 C.3     1  UNL1        0.0185
      9 N          -2.3712   -0.2563    0.4173 N.pl3   1  UNL1       -0.2982
     10 C          -2.8051    1.0309    0.0710 C.ar    1  UNL1        0.0479
     11 C          -1.9792    2.1232    0.2373 C.ar    1  UNL1       -0.0393
     12 C          -2.3120    3.4461   -0.0598 C.ar    1  UNL1       -0.0599
     13 C          -3.5679    3.7085   -0.5630 C.ar    1  UNL1       -0.0606
     14 C          -4.4312    2.6552   -0.7475 C.ar    1  UNL1       -0.0462
     15 C          -4.0123    1.3932   -0.4263 C.ar    1  UNL1        0.0341
     16 S          -5.2536    0.1465   -0.7124 S.3     1  UNL1       -0.0857
     17 C          -4.5158   -1.3926   -0.2033 C.ar    1  UNL1        0.0342
     18 C          -3.2260   -1.3781    0.2673 C.ar    1  UNL1        0.0493
     19 C          -2.7834   -2.6356    0.6121 C.ar    1  UNL1       -0.0209
     20 C          -3.5350   -3.7903    0.5051 C.ar    1  UNL1        0.0428
     21 CL         -2.9819   -5.3929    0.9407 Cl      1  UNL1       -0.0835
     22 C          -4.8368   -3.7109    0.0168 C.ar    1  UNL1       -0.0422
     23 C          -5.3173   -2.4687   -0.3402 C.ar    1  UNL1       -0.0448
     24 C           3.6832   -0.9077    0.3076 C.3     1  UNL1        0.0117
     25 C           4.2597    0.2873    1.0278 C.3     1  UNL1        0.0114
     26 H           6.9272    1.3945   -0.6152 H       1  UNL1        0.0391
     27 H           6.1694   -0.2504   -0.7910 H       1  UNL1        0.0391
     28 H           6.6070    0.3230    0.8444 H       1  UNL1        0.0391
     29 H           4.5772    0.3357   -1.8948 H       1  UNL1        0.0439
     30 H           4.2167    2.0761   -1.7690 H       1  UNL1        0.0439
     31 H           2.2268    0.7998   -2.0038 H       1  UNL1        0.0439
     32 H           2.2562    1.6812   -0.4312 H       1  UNL1        0.0439
     33 H           1.3973   -1.4704    1.0844 H       1  UNL1        0.0427
     34 H           1.5162    0.2835    1.3161 H       1  UNL1        0.0427
     35 H          -0.0729   -1.1425   -0.9314 H       1  UNL1        0.0293
     36 H           0.1096    0.5924   -0.7357 H       1  UNL1        0.0293
     37 H          -0.8267   -1.3347    1.4735 H       1  UNL1        0.0468
     38 H          -0.7784    0.3995    1.6620 H       1  UNL1        0.0468
     39 H          -0.9782    2.0845    0.6316 H       1  UNL1        0.0636
     40 H          -1.6620    4.2957    0.0717 H       1  UNL1        0.0618
     41 H          -3.8587    4.7217   -0.8040 H       1  UNL1        0.0618
     42 H          -5.4041    2.9121   -1.1438 H       1  UNL1        0.0629
     43 H          -1.8237   -2.8673    0.9910 H       1  UNL1        0.0651
     44 H          -5.4553   -4.5915   -0.0814 H       1  UNL1        0.0632
     45 H          -6.3311   -2.4389   -0.7163 H       1  UNL1        0.0630
     46 H           4.4348   -1.3010   -0.4043 H       1  UNL1        0.0439
     47 H           3.3700   -1.6878    1.0407 H       1  UNL1        0.0439
     48 H           5.0462   -0.0538    1.7519 H       1  UNL1        0.0439
     49 H           3.4650    0.8325    1.5363 H       1  UNL1        0.0439
@<TRIPOS>BOND
     1     1     2    1
     2     2     3    1
     3     3     4    1
     4     4     5    1
     5     5     6    1
     6     6     7    1
     7     7     8    1
     8     8     9    1
     9     9    10    1
    10    10    11   ar
    11    11    12   ar
    12    12    13   ar
    13    13    14   ar
    14    14    15   ar
    15    15    16    1
    16    16    17    1
    17    17    18   ar
    18    18    19   ar
    19    19    20   ar
    20    20    21    1
    21    20    22   ar
    22    22    23   ar
    23     5    24    1
    24    24    25    1
    25    25     2    1
    26    18     9    1
    27    15    10   ar
    28    23    17   ar
    29     1    26    1
    30     1    27    1
    31     1    28    1
    32     3    29    1
    33     3    30    1
    34     4    31    1
    35     4    32    1
    36     6    33    1
    37     6    34    1
    38     7    35    1
    39     7    36    1
    40     8    37    1
    41     8    38    1
    42    11    39    1
    43    12    40    1
    44    13    41    1
    45    14    42    1
    46    19    43    1
    47    22    44    1
    48    23    45    1
    49    24    46    1
    50    24    47    1
    51    25    48    1
    52    25    49    1
