@<TRIPOS>MOLECULE
*****
 65 66 0 0 0
SMALL
GASTEIGER

@<TRIPOS>ATOM
      1 C          -4.2857    4.6181    0.3486 C.3     1  UNL1       -0.0645
      2 C          -3.7638    3.3273    0.8703 C.3     1  UNL1       -0.0432
      3 C          -3.4318    2.3308   -0.2206 C.3     1  UNL1        0.0534
      4 C          -4.6993    2.0607   -0.9902 C.3     1  UNL1       -0.0523
      5 C          -3.0283    1.0497    0.4412 C.2     1  UNL1        0.3102
      6 O          -3.0051    0.9332    1.6942 O.2     1  UNL1       -0.2505
      7 O          -2.6598   -0.0740   -0.2679 O.3     1  UNL1       -0.4604
      8 C          -2.2800   -1.2801    0.3579 C.3     1  UNL1        0.1127
      9 C          -3.3044   -2.3732    0.1565 C.3     1  UNL1        0.0146
     10 C          -2.9711   -3.4141    1.2554 C.3     1  UNL1        0.0773
     11 O          -2.9721   -2.8528    2.5020 O.3     1  UNL1       -0.3876
     12 C          -1.6210   -3.9517    0.8468 C.2     1  UNL1       -0.0522
     13 C          -0.7062   -3.1348    0.3042 C.2     1  UNL1       -0.0423
     14 C           0.6095   -3.7019   -0.0903 C.2     1  UNL1       -0.0621
     15 C           1.0832   -3.3390   -1.2705 C.2     1  UNL1       -0.0806
     16 C           0.2326   -2.4111   -2.0539 C.3     1  UNL1       -0.0219
     17 C           0.9331   -1.9080   -3.2907 C.3     1  UNL1       -0.0587
     18 C          -0.3526   -1.2835   -1.2522 C.3     1  UNL1       -0.0247
     19 C           0.6830   -0.1987   -1.1089 C.3     1  UNL1       -0.0467
     20 C           1.9348   -0.6027   -0.4207 C.3     1  UNL1       -0.0265
     21 C           2.8350    0.6406   -0.3863 C.3     1  UNL1        0.0576
     22 O           2.1389    1.6189    0.3199 O.3     1  UNL1       -0.3917
     23 C           4.0958    0.3385    0.3748 C.3     1  UNL1       -0.0004
     24 C           4.9393    1.5941    0.3755 C.3     1  UNL1        0.0626
     25 O           4.1690    2.5885    1.0090 O.3     1  UNL1       -0.3913
     26 C           6.2111    1.3532    1.1309 C.3     1  UNL1        0.0130
     27 C           7.0255    2.5825    1.1256 C.2     1  UNL1        0.0442
     28 O           6.6073    3.6061    0.5434 O.co2   1  UNL1       -0.5497
     29 O           8.2757    2.6220    1.7705 O.co2   1  UNL1       -0.5497
     30 C          -0.8880   -1.6892    0.0925 C.3     1  UNL1        0.0245
     31 H          -3.9062    5.5025    0.9342 H       1  UNL1        0.0230
     32 H          -5.3887    4.6308    0.5022 H       1  UNL1        0.0230
     33 H          -4.0911    4.7946   -0.7247 H       1  UNL1        0.0230
     34 H          -4.4620    2.8230    1.5888 H       1  UNL1        0.0270
     35 H          -2.8184    3.5326    1.4478 H       1  UNL1        0.0270
     36 H          -2.6304    2.7597   -0.8348 H       1  UNL1        0.0410
     37 H          -4.7333    1.0138   -1.3858 H       1  UNL1        0.0238
     38 H          -4.7314    2.7218   -1.8930 H       1  UNL1        0.0238
     39 H          -5.6083    2.1783   -0.3659 H       1  UNL1        0.0238
     40 H          -2.3608   -1.0672    1.4703 H       1  UNL1        0.0741
     41 H          -4.3022   -1.9958    0.4305 H       1  UNL1        0.0329
     42 H          -3.2013   -2.8079   -0.8320 H       1  UNL1        0.0329
     43 H          -3.6950   -4.2365    1.0967 H       1  UNL1        0.0639
     44 H          -3.9174   -2.9066    2.8482 H       1  UNL1        0.2102
     45 H          -1.3677   -4.9707    0.9865 H       1  UNL1        0.0600
     46 H           1.0872   -4.3891    0.5987 H       1  UNL1        0.0617
     47 H           2.0376   -3.7225   -1.5997 H       1  UNL1        0.0575
     48 H          -0.6770   -2.9636   -2.4589 H       1  UNL1        0.0343
     49 H           1.9998   -1.7248   -3.1845 H       1  UNL1        0.0235
     50 H           0.3622   -1.0488   -3.6893 H       1  UNL1        0.0235
     51 H           0.8488   -2.7158   -4.0767 H       1  UNL1        0.0235
     52 H          -1.1744   -0.8452   -1.8766 H       1  UNL1        0.0313
     53 H           0.2263    0.6325   -0.5699 H       1  UNL1        0.0269
     54 H           0.9304    0.1541   -2.1232 H       1  UNL1        0.0269
     55 H           1.7985   -0.8838    0.6429 H       1  UNL1        0.0290
     56 H           2.5294   -1.3880   -0.8846 H       1  UNL1        0.0290
     57 H           3.0510    0.9536   -1.4298 H       1  UNL1        0.0594
     58 H           2.0511    2.4251   -0.2448 H       1  UNL1        0.2098
     59 H           3.7925    0.0922    1.4189 H       1  UNL1        0.0315
     60 H           4.6040   -0.5307   -0.0536 H       1  UNL1        0.0315
     61 H           5.1094    1.8791   -0.6775 H       1  UNL1        0.0598
     62 H           4.3866    2.6215    1.9736 H       1  UNL1        0.2098
     63 H           5.9414    1.0469    2.1631 H       1  UNL1        0.0350
     64 H           6.7711    0.5515    0.6113 H       1  UNL1        0.0350
     65 H          -0.2665   -1.1663    0.9121 H       1  UNL1        0.0388
@<TRIPOS>UNITY_ATOM_ATTR
29 1
charge -1
@<TRIPOS>BOND
     1     1     2    1
     2     2     3    1
     3     3     4    1
     4     3     5    1
     5     5     6    2
     6     5     7    1
     7     7     8    1
     8     8     9    1
     9     9    10    1
    10    10    11    1
    11    10    12    1
    12    12    13    2
    13    13    14    1
    14    14    15    2
    15    15    16    1
    16    16    17    1
    17    16    18    1
    18    18    19    1
    19    19    20    1
    20    20    21    1
    21    21    22    1
    22    21    23    1
    23    23    24    1
    24    24    25    1
    25    24    26    1
    26    26    27    1
    27    27    28   ar
    28    27    29   ar
    29    18    30    1
    30    30     8    1
    31    30    13    1
    32     1    31    1
    33     1    32    1
    34     1    33    1
    35     2    34    1
    36     2    35    1
    37     3    36    1
    38     4    37    1
    39     4    38    1
    40     4    39    1
    41     8    40    1
    42     9    41    1
    43     9    42    1
    44    10    43    1
    45    11    44    1
    46    12    45    1
    47    14    46    1
    48    15    47    1
    49    16    48    1
    50    17    49    1
    51    17    50    1
    52    17    51    1
    53    18    52    1
    54    19    53    1
    55    19    54    1
    56    20    55    1
    57    20    56    1
    58    21    57    1
    59    22    58    1
    60    23    59    1
    61    23    60    1
    62    24    61    1
    63    25    62    1
    64    26    63    1
    65    26    64    1
    66    30    65    1
