
     RDKit          3D

 40 42  0  0  0  0  0  0  0  0999 V2000
    3.9667   -3.8859    0.5618 O   0  0  0  0  0  0  0  0  0  0  0  0
    3.1435   -2.8034    0.3787 C   0  0  0  0  0  0  0  0  0  0  0  0
    3.3752   -1.7863   -0.5517 C   0  0  0  0  0  0  0  0  0  0  0  0
    2.5191   -0.7207   -0.6970 C   0  0  0  0  0  0  0  0  0  0  0  0
    1.3830   -0.6247    0.0883 C   0  0  0  0  0  0  0  0  0  0  0  0
    1.1491   -1.6353    1.0152 C   0  0  0  0  0  0  0  0  0  0  0  0
    1.9959   -2.7092    1.1743 C   0  0  0  0  0  0  0  0  0  0  0  0
    0.3834    0.4834    0.0162 C   0  0  0  0  0  0  0  0  0  0  0  0
    0.9459    1.5781   -0.8431 C   0  0  0  0  0  0  0  0  0  0  0  0
    0.2310    2.8841   -0.6984 C   0  0  0  0  0  0  0  0  0  0  0  0
   -0.9602    2.8712    0.2031 C   0  0  0  0  0  0  0  0  0  0  0  0
   -0.6232    2.2354    1.5303 C   0  0  0  0  0  0  0  0  0  0  0  0
    0.2811    1.0557    1.4194 C   0  0  0  0  0  0  0  0  0  0  0  0
   -0.9237   -0.0228   -0.4407 C   0  0  0  0  0  0  0  0  0  0  0  0
   -1.9047   -0.4136    0.4447 C   0  0  0  0  0  0  0  0  0  0  0  0
   -3.1501   -0.9003    0.0599 C   0  0  0  0  0  0  0  0  0  0  0  0
   -3.4267   -1.0004   -1.2866 C   0  0  0  0  0  0  0  0  0  0  0  0
   -4.6809   -1.4906   -1.6538 O   0  0  0  0  0  0  0  0  0  0  0  0
   -2.4840   -0.6245   -2.1988 C   0  0  0  0  0  0  0  0  0  0  0  0
   -1.2367   -0.1372   -1.7902 C   0  0  0  0  0  0  0  0  0  0  0  0
    4.6877   -4.1495   -0.0727 H   0  0  0  0  0  0  0  0  0  0  0  0
    4.2700   -1.8724   -1.1621 H   0  0  0  0  0  0  0  0  0  0  0  0
    2.6862    0.0738   -1.4134 H   0  0  0  0  0  0  0  0  0  0  0  0
    0.2818   -1.6384    1.6717 H   0  0  0  0  0  0  0  0  0  0  0  0
    1.8063   -3.4802    1.8900 H   0  0  0  0  0  0  0  0  0  0  0  0
    1.9959    1.7475   -0.4592 H   0  0  0  0  0  0  0  0  0  0  0  0
    1.0516    1.2709   -1.9069 H   0  0  0  0  0  0  0  0  0  0  0  0
    0.9002    3.7154   -0.3697 H   0  0  0  0  0  0  0  0  0  0  0  0
   -0.1003    3.2000   -1.7238 H   0  0  0  0  0  0  0  0  0  0  0  0
   -1.8764    2.4518   -0.2394 H   0  0  0  0  0  0  0  0  0  0  0  0
   -1.1959    3.9487    0.4371 H   0  0  0  0  0  0  0  0  0  0  0  0
   -0.1553    2.9651    2.2238 H   0  0  0  0  0  0  0  0  0  0  0  0
   -1.6050    1.9932    1.9961 H   0  0  0  0  0  0  0  0  0  0  0  0
    1.3286    1.3961    1.6570 H   0  0  0  0  0  0  0  0  0  0  0  0
    0.0427    0.3184    2.1912 H   0  0  0  0  0  0  0  0  0  0  0  0
   -1.7587   -0.3623    1.5116 H   0  0  0  0  0  0  0  0  0  0  0  0
   -3.9017   -1.1997    0.7940 H   0  0  0  0  0  0  0  0  0  0  0  0
   -5.1504   -2.1487   -1.0427 H   0  0  0  0  0  0  0  0  0  0  0  0
   -2.7718   -0.7319   -3.2322 H   0  0  0  0  0  0  0  0  0  0  0  0
   -0.5194    0.1490   -2.5456 H   0  0  0  0  0  0  0  0  0  0  0  0
  1  2  1  0
  2  3  2  0
  3  4  1  0
  4  5  2  0
  5  6  1  0
  6  7  2  0
  5  8  1  0
  8  9  1  0
  9 10  1  0
 10 11  1  0
 11 12  1  0
 12 13  1  0
  8 14  1  0
 14 15  2  0
 15 16  1  0
 16 17  2  0
 17 18  1  0
 17 19  1  0
 19 20  2  0
  7  2  1  0
 13  8  1  0
 20 14  1  0
  1 21  1  0
  3 22  1  0
  4 23  1  0
  6 24  1  0
  7 25  1  0
  9 26  1  0
  9 27  1  0
 10 28  1  0
 10 29  1  0
 11 30  1  0
 11 31  1  0
 12 32  1  0
 12 33  1  0
 13 34  1  0
 13 35  1  0
 15 36  1  0
 16 37  1  0
 18 38  1  0
 19 39  1  0
 20 40  1  0
M  END
$$$$
