@<TRIPOS>MOLECULE
*****
 40 42 0 0 0
SMALL
GASTEIGER

@<TRIPOS>ATOM
      1 O           3.9667   -3.8859    0.5618 O.3     1  UNL1       -0.5068
      2 C           3.1435   -2.8034    0.3787 C.ar    1  UNL1        0.1169
      3 C           3.3752   -1.7863   -0.5517 C.ar    1  UNL1       -0.0199
      4 C           2.5191   -0.7207   -0.6970 C.ar    1  UNL1       -0.0543
      5 C           1.3830   -0.6247    0.0883 C.ar    1  UNL1       -0.0367
      6 C           1.1491   -1.6353    1.0152 C.ar    1  UNL1       -0.0543
      7 C           1.9959   -2.7092    1.1743 C.ar    1  UNL1       -0.0199
      8 C           0.3834    0.4834    0.0162 C.3     1  UNL1        0.0207
      9 C           0.9459    1.5781   -0.8431 C.3     1  UNL1       -0.0393
     10 C           0.2310    2.8841   -0.6984 C.3     1  UNL1       -0.0520
     11 C          -0.9602    2.8712    0.2031 C.3     1  UNL1       -0.0530
     12 C          -0.6232    2.2354    1.5303 C.3     1  UNL1       -0.0520
     13 C           0.2811    1.0557    1.4194 C.3     1  UNL1       -0.0393
     14 C          -0.9237   -0.0228   -0.4407 C.ar    1  UNL1       -0.0367
     15 C          -1.9047   -0.4136    0.4447 C.ar    1  UNL1       -0.0543
     16 C          -3.1501   -0.9003    0.0599 C.ar    1  UNL1       -0.0199
     17 C          -3.4267   -1.0004   -1.2866 C.ar    1  UNL1        0.1169
     18 O          -4.6809   -1.4906   -1.6538 O.3     1  UNL1       -0.5068
     19 C          -2.4840   -0.6245   -2.1988 C.ar    1  UNL1       -0.0199
     20 C          -1.2367   -0.1372   -1.7902 C.ar    1  UNL1       -0.0543
     21 H           4.6877   -4.1495   -0.0727 H       1  UNL1        0.2921
     22 H           4.2700   -1.8724   -1.1621 H       1  UNL1        0.0654
     23 H           2.6862    0.0738   -1.4134 H       1  UNL1        0.0622
     24 H           0.2818   -1.6384    1.6717 H       1  UNL1        0.0622
     25 H           1.8063   -3.4802    1.8900 H       1  UNL1        0.0654
     26 H           1.9959    1.7475   -0.4592 H       1  UNL1        0.0277
     27 H           1.0516    1.2709   -1.9069 H       1  UNL1        0.0277
     28 H           0.9002    3.7154   -0.3697 H       1  UNL1        0.0266
     29 H          -0.1003    3.2000   -1.7238 H       1  UNL1        0.0266
     30 H          -1.8764    2.4518   -0.2394 H       1  UNL1        0.0265
     31 H          -1.1959    3.9487    0.4371 H       1  UNL1        0.0265
     32 H          -0.1553    2.9651    2.2238 H       1  UNL1        0.0266
     33 H          -1.6050    1.9932    1.9961 H       1  UNL1        0.0266
     34 H           1.3286    1.3961    1.6570 H       1  UNL1        0.0277
     35 H           0.0427    0.3184    2.1912 H       1  UNL1        0.0277
     36 H          -1.7587   -0.3623    1.5116 H       1  UNL1        0.0622
     37 H          -3.9017   -1.1997    0.7940 H       1  UNL1        0.0654
     38 H          -5.1504   -2.1487   -1.0427 H       1  UNL1        0.2921
     39 H          -2.7718   -0.7319   -3.2322 H       1  UNL1        0.0654
     40 H          -0.5194    0.1490   -2.5456 H       1  UNL1        0.0622
@<TRIPOS>BOND
     1     1     2    1
     2     2     3   ar
     3     3     4   ar
     4     4     5   ar
     5     5     6   ar
     6     6     7   ar
     7     5     8    1
     8     8     9    1
     9     9    10    1
    10    10    11    1
    11    11    12    1
    12    12    13    1
    13     8    14    1
    14    14    15   ar
    15    15    16   ar
    16    16    17   ar
    17    17    18    1
    18    17    19   ar
    19    19    20   ar
    20     7     2   ar
    21    13     8    1
    22    20    14   ar
    23     1    21    1
    24     3    22    1
    25     4    23    1
    26     6    24    1
    27     7    25    1
    28     9    26    1
    29     9    27    1
    30    10    28    1
    31    10    29    1
    32    11    30    1
    33    11    31    1
    34    12    32    1
    35    12    33    1
    36    13    34    1
    37    13    35    1
    38    15    36    1
    39    16    37    1
    40    18    38    1
    41    19    39    1
    42    20    40    1
