@<TRIPOS>MOLECULE
*****
 61 62 0 0 0
SMALL
GASTEIGER

@<TRIPOS>ATOM
      1 C          -7.0576    0.0260   -1.3052 C.3     0  UNK0        0.0122
      2 C          -5.8981    0.2477   -0.4268 C.2     0  UNK0        0.2109
      3 O          -5.8246    1.2542    0.2947 O.2     0  UNK0       -0.2761
      4 N          -4.8070   -0.6768   -0.3606 N.am    0  UNK0       -0.2983
      5 C          -3.6710   -0.4429    0.5098 C.3     0  UNK0        0.1335
      6 C          -4.1192   -0.2700    1.9506 C.3     0  UNK0       -0.0309
      7 C          -2.7815   -1.6014    0.4261 C.2     0  UNK0        0.2440
      8 O          -3.0853   -2.4666   -0.4786 O.2     0  UNK0       -0.2729
      9 N          -1.6369   -1.9195    1.1945 N.am    0  UNK0       -0.2878
     10 C          -0.6974   -3.0822    1.1603 C.3     0  UNK0        0.0177
     11 C          -0.5917   -2.9202    2.6574 C.3     0  UNK0       -0.0099
     12 C          -0.8104   -1.4716    2.2817 C.3     0  UNK0        0.1037
     13 C           0.4532   -0.8043    1.9671 C.2     0  UNK0        0.2342
     14 O           1.2039   -0.5434    2.9732 O.2     0  UNK0       -0.2738
     15 N           0.9369   -0.4213    0.7144 N.am    1  ARG1       -0.3044
     16 CA          2.2404    0.2362    0.5755 C.3     1  ARG1        0.0786
     17 C           2.0904    1.5524   -0.0713 C.2     1  ARG1        0.1404
     18 O           2.9633    2.3657   -0.2694 O.2     1  ARG1       -0.2991
     19 CB          3.1675   -0.6826   -0.2230 C.3     1  ARG1       -0.0250
     20 CG          4.5028   -0.0422   -0.3775 C.3     1  ARG1       -0.0202
     21 CD          5.4704   -0.9572   -1.1417 C.3     1  ARG1        0.0647
     22 NE          6.7228   -0.2415   -1.2375 N.pl3   1  ARG1       -0.2761
     23 CZ          6.8841    0.9279   -2.0271 C.cat   1  ARG1        0.3762
     24 NH1         6.1534    1.0098   -3.1064 N.pl3   1  ARG1       -0.1298
     25 NH2         7.7784    1.9640   -1.6899 N.pl3   1  ARG1       -0.2893
     26 C          -2.9889    0.8049    0.0917 C.ar    0  UNK0       -0.0156
     27 C          -3.3521    1.3492   -1.1446 C.ar    0  UNK0       -0.0561
     28 C          -2.8021    2.5360   -1.5696 C.ar    0  UNK0       -0.0614
     29 C          -1.8896    3.1978   -0.7833 C.ar    0  UNK0       -0.0617
     30 C          -1.5366    2.6497    0.4388 C.ar    0  UNK0       -0.0614
     31 C          -2.0748    1.4557    0.8934 C.ar    0  UNK0       -0.0561
     32 H          -6.9009   -0.8287   -2.0061 H       0  UNK0        0.0322
     33 H          -7.3278    0.9626   -1.8182 H       0  UNK0        0.0322
     34 H          -7.9319   -0.2819   -0.6732 H       0  UNK0        0.0322
     35 H          -4.8062   -1.5432   -0.9391 H       0  UNK0        0.1500
     36 H          -3.7941    0.7263    2.2971 H       0  UNK0        0.0258
     37 H          -3.7077   -1.0203    2.6233 H       0  UNK0        0.0258
     38 H          -5.2200   -0.3154    1.9790 H       0  UNK0        0.0258
     39 H           0.2259   -2.8032    0.6403 H       0  UNK0        0.0465
     40 H          -1.2012   -3.9997    0.7987 H       0  UNK0        0.0465
     41 H           0.4101   -3.1581    3.0759 H       0  UNK0        0.0303
     42 H          -1.4470   -3.4130    3.1792 H       0  UNK0        0.0303
     43 H          -1.3434   -0.9410    3.0996 H       0  UNK0        0.0597
     44 H           0.3483   -0.6012   -0.1322 H       1  ARG1        0.1494
     45 HA          2.6328    0.3874    1.5964 H       1  ARG1        0.0574
     46 H           1.0929    1.8511   -0.4192 H       1  ARG1        0.1046
     47 HB1         3.2149   -1.6775    0.2604 H       1  ARG1        0.0288
     48 HB2         2.7255   -0.8665   -1.2389 H       1  ARG1        0.0288
     49 HG1         5.0080    0.2199    0.5664 H       1  ARG1        0.0296
     50 HG2         4.4400    0.8650   -1.0500 H       1  ARG1        0.0296
     51 HD1         5.0665   -1.2327   -2.1232 H       1  ARG1        0.0655
     52 HD2         5.6427   -1.8743   -0.5365 H       1  ARG1        0.0655
     53 HE          7.5691   -0.5801   -0.7073 H       1  ARG1        0.2579
     54 HH1         5.4846    0.2932   -3.4083 H       1  ARG1        0.3062
     55 HH21        7.6190    2.9060   -2.1284 H       1  ARG1        0.2546
     56 HH22        8.5711    1.8409   -1.0432 H       1  ARG1        0.2546
     57 H          -4.0726    0.8214   -1.7960 H       0  UNK0        0.0621
     58 H          -3.1362    2.8932   -2.5441 H       0  UNK0        0.0618
     59 H          -1.4822    4.1237   -1.1557 H       0  UNK0        0.0618
     60 H          -0.8184    3.1648    1.0603 H       0  UNK0        0.0618
     61 H          -1.8047    1.0479    1.8576 H       0  UNK0        0.0621
@<TRIPOS>BOND
     1     1     2    1
     2     2     3    2
     3     2     4   am
     4     5     4    1
     5     5     6    1
     6     5     7    1
     7     7     8    2
     8     7     9   am
     9     9    10    1
    10    10    11    1
    11    11    12    1
    12    12    13    1
    13    13    14    2
    14    13    15   am
    15    15    16    1
    16    16    17    1
    17    17    18    2
    18    16    19    1
    19    19    20    1
    20    20    21    1
    21    21    22    1
    22    22    23    1
    23    23    24    2
    24    23    25    1
    25     5    26    1
    26    26    27   ar
    27    27    28   ar
    28    28    29   ar
    29    29    30   ar
    30    30    31   ar
    31    12     9    1
    32    31    26   ar
    33     1    32    1
    34     1    33    1
    35     1    34    1
    36     4    35    1
    37     6    36    1
    38     6    37    1
    39     6    38    1
    40    10    39    1
    41    10    40    1
    42    11    41    1
    43    11    42    1
    44    12    43    1
    45    15    44    1
    46    16    45    1
    47    17    46    1
    48    19    47    1
    49    19    48    1
    50    20    49    1
    51    20    50    1
    52    21    51    1
    53    21    52    1
    54    22    53    1
    55    24    54    1
    56    25    55    1
    57    25    56    1
    58    27    57    1
    59    28    58    1
    60    29    59    1
    61    30    60    1
    62    31    61    1
