@<TRIPOS>MOLECULE
*****
 24 23 0 0 0
SMALL
GASTEIGER

@<TRIPOS>ATOM
      1 N          -2.6045   -0.8827   -0.9855 N.3     1  UNL1       -0.3183
      2 CA         -1.9804   -0.3108    0.2035 C.3     1  UNL1        0.1061
      3 C          -0.6417    0.2132   -0.1865 C.3     1  UNL1        0.0034
      4 C           0.1267   -1.0036   -0.7191 C.3     1  UNL1        0.0667
      5 N           1.4574   -0.6830   -1.1422 N.pl3   1  UNL1       -0.2739
      6 C           2.4286   -0.3090   -0.1903 C.2     1  UNL1        0.4063
      7 N           2.4238   -0.8656    0.9858 N.pl3   1  UNL1       -0.1275
      8 N           3.4370    0.6798   -0.4802 N.3     1  UNL1       -0.1421
      9 O           4.2428    1.1392    0.5234 O.3     1  UNL1       -0.2333
     10 C          -2.8822    0.6376    0.8487 C.2     1  UNL1        0.3218
     11 O          -2.9009    1.5038    1.9106 O.3     1  UNL1       -0.4795
     12 OXT        -4.0553    0.8068    0.3683 O.2     1  UNL1       -0.2493
     13 H1         -2.4388   -1.8935   -1.0948 H       1  UNL1        0.1190
     14 H2         -3.6135   -0.6151   -1.0291 H       1  UNL1        0.1190
     15 HA         -1.7978   -1.1614    0.9114 H       1  UNL1        0.0575
     16 H          -0.0889    0.7142    0.6069 H       1  UNL1        0.0316
     17 H          -0.7069    0.9017   -1.0777 H       1  UNL1        0.0316
     18 H          -0.4506   -1.3793   -1.5786 H       1  UNL1        0.0655
     19 H           0.1066   -1.8179    0.0396 H       1  UNL1        0.0655
     20 H           1.7760   -0.7066   -2.1547 H       1  UNL1        0.2579
     21 H           3.1420   -0.5994    1.7144 H       1  UNL1        0.3063
     22 H           3.5247    1.0236   -1.4756 H       1  UNL1        0.2985
     23 H           4.4884    2.0822    0.3366 H       1  UNL1        0.2622
     24 H          -2.9925    2.5256    1.7907 H       1  UNL1        0.2951
@<TRIPOS>BOND
     1     1     2    1
     2     2     3    1
     3     3     4    1
     4     4     5    1
     5     5     6    1
     6     6     7    2
     7     6     8    1
     8     8     9    1
     9     2    10    1
    10    10    11    1
    11    10    12    2
    12     1    13    1
    13     1    14    1
    14     2    15    1
    15     3    16    1
    16     3    17    1
    17     4    18    1
    18     4    19    1
    19     5    20    1
    20     7    21    1
    21     8    22    1
    22     9    23    1
    23    11    24    1
