@<TRIPOS>MOLECULE
*****
 60 62 0 0 0
SMALL
GASTEIGER

@<TRIPOS>ATOM
      1 C           4.9370    3.9540    0.0869 C.3     1  UNL1       -0.0613
      2 C           4.5869    2.9990   -1.0006 C.3     1  UNL1       -0.0305
      3 C           3.8564    1.8086   -0.5423 C.ar    1  UNL1       -0.0467
      4 C           2.4840    1.7637   -0.4741 C.ar    1  UNL1       -0.0551
      5 C           1.8971    0.5820   -0.0251 C.ar    1  UNL1       -0.0189
      6 C           2.6279   -0.5261    0.3472 C.ar    1  UNL1        0.1331
      7 O           2.0484   -1.6772    0.7841 O.3     1  UNL1       -0.4882
      8 C           0.6822   -1.9613    0.9416 C.3     1  UNL1        0.1005
      9 C           0.3961   -2.3868    2.3579 C.3     1  UNL1       -0.0277
     10 C           0.3517   -3.0410   -0.0615 C.3     1  UNL1        0.0182
     11 C          -1.1243   -3.4480    0.0098 C.3     1  UNL1        0.0929
     12 O          -1.9850   -2.5293   -0.2087 O.3     1  UNL1       -0.4918
     13 C          -2.8073   -1.5764   -0.5539 C.ar    1  UNL1        0.1208
     14 C          -2.7460   -0.9442   -1.8125 C.ar    1  UNL1       -0.0197
     15 C          -3.6262    0.0524   -2.1379 C.ar    1  UNL1       -0.0549
     16 C          -4.6027    0.4857   -1.2693 C.ar    1  UNL1       -0.0437
     17 C          -5.5492    1.5484   -1.6614 C.3     1  UNL1       -0.0174
     18 C          -5.3099    2.8288   -0.9509 C.3     1  UNL1        0.0487
     19 C          -3.9794    3.3615   -1.2083 C.2     1  UNL1        0.3050
     20 O          -3.1570    2.8149   -1.9347 O.2     1  UNL1       -0.2510
     21 O          -3.6107    4.5682   -0.5939 O.3     1  UNL1       -0.4806
     22 C          -4.6970   -0.1081   -0.0266 C.ar    1  UNL1       -0.0438
     23 C          -5.7535    0.3297    0.9568 C.3     1  UNL1       -0.0393
     24 C          -3.8179   -1.1026    0.2961 C.ar    1  UNL1       -0.0168
     25 C           4.0245   -0.4731    0.2754 C.ar    1  UNL1        0.0787
     26 C           4.8373   -1.6381    0.6685 C.ar    1  UNL1        0.2306
     27 N           4.4474   -2.8180    1.1174 N.ar    1  UNL1       -0.2174
     28 C           5.5538   -3.5514    1.3400 C.ar    1  UNL1        0.0663
     29 C           6.6371   -2.7690    1.0080 C.ar    1  UNL1        0.1125
     30 O           6.1432   -1.6340    0.6125 O.2     1  UNL1       -0.4434
     31 C           4.5851    0.6979   -0.1687 C.ar    1  UNL1       -0.0428
     32 H           5.9588    3.7159    0.4526 H       1  UNL1        0.0233
     33 H           4.8802    5.0201   -0.2058 H       1  UNL1        0.0233
     34 H           4.2685    3.8450    0.9865 H       1  UNL1        0.0233
     35 H           5.5278    2.6627   -1.4916 H       1  UNL1        0.0311
     36 H           3.9782    3.4584   -1.8127 H       1  UNL1        0.0311
     37 H           1.8817    2.6169   -0.7595 H       1  UNL1        0.0621
     38 H           0.8088    0.5982    0.0100 H       1  UNL1        0.0654
     39 H           0.0210   -1.0998    0.7224 H       1  UNL1        0.0731
     40 H           0.9530   -1.6784    3.0241 H       1  UNL1        0.0265
     41 H          -0.6778   -2.2658    2.6268 H       1  UNL1        0.0265
     42 H           0.7871   -3.3897    2.6065 H       1  UNL1        0.0265
     43 H           0.5124   -2.6454   -1.0824 H       1  UNL1        0.0334
     44 H           0.9723   -3.9478    0.0459 H       1  UNL1        0.0334
     45 H          -1.1668   -4.0218    0.9985 H       1  UNL1        0.0698
     46 H          -1.2385   -4.3254   -0.7255 H       1  UNL1        0.0698
     47 H          -1.9700   -1.2983   -2.4840 H       1  UNL1        0.0654
     48 H          -3.5241    0.4761   -3.1328 H       1  UNL1        0.0621
     49 H          -5.4942    1.7110   -2.7767 H       1  UNL1        0.0318
     50 H          -6.5994    1.1627   -1.5208 H       1  UNL1        0.0318
     51 H          -6.0964    3.5527   -1.3419 H       1  UNL1        0.0381
     52 H          -5.4197    2.7252    0.1527 H       1  UNL1        0.0381
     53 H          -2.7447    5.0056   -0.8689 H       1  UNL1        0.2951
     54 H          -6.0796   -0.6307    1.4537 H       1  UNL1        0.0278
     55 H          -5.3539    0.9593    1.7542 H       1  UNL1        0.0278
     56 H          -6.6625    0.7061    0.4549 H       1  UNL1        0.0278
     57 H          -3.8642   -1.5947    1.2720 H       1  UNL1        0.0657
     58 H           5.6387   -4.5735    1.7117 H       1  UNL1        0.0862
     59 H           7.6857   -3.0645    1.0725 H       1  UNL1        0.1046
     60 H           5.6878    0.7098   -0.2149 H       1  UNL1        0.0629
@<TRIPOS>BOND
     1     1     2    1
     2     2     3    1
     3     3     4   ar
     4     4     5   ar
     5     5     6   ar
     6     6     7    1
     7     7     8    1
     8     8     9    1
     9     8    10    1
    10    10    11    1
    11    11    12    1
    12    12    13    1
    13    13    14   ar
    14    14    15   ar
    15    15    16   ar
    16    16    17    1
    17    17    18    1
    18    18    19    1
    19    19    20    2
    20    19    21    1
    21    16    22   ar
    22    22    23    1
    23    22    24   ar
    24     6    25   ar
    25    25    26    1
    26    26    27   ar
    27    27    28   ar
    28    28    29   ar
    29    29    30   ar
    30    25    31   ar
    31    31     3   ar
    32    24    13   ar
    33    30    26   ar
    34     1    32    1
    35     1    33    1
    36     1    34    1
    37     2    35    1
    38     2    36    1
    39     4    37    1
    40     5    38    1
    41     8    39    1
    42     9    40    1
    43     9    41    1
    44     9    42    1
    45    10    43    1
    46    10    44    1
    47    11    45    1
    48    11    46    1
    49    14    47    1
    50    15    48    1
    51    17    49    1
    52    17    50    1
    53    18    51    1
    54    18    52    1
    55    21    53    1
    56    23    54    1
    57    23    55    1
    58    23    56    1
    59    24    57    1
    60    28    58    1
    61    29    59    1
    62    31    60    1
