
     RDKit          3D

 60 62  0  0  0  0  0  0  0  0999 V2000
    4.9370    3.9540    0.0869 C   0  0  0  0  0  0  0  0  0  0  0  0
    4.5869    2.9990   -1.0006 C   0  0  0  0  0  0  0  0  0  0  0  0
    3.8564    1.8086   -0.5423 C   0  0  0  0  0  0  0  0  0  0  0  0
    2.4840    1.7637   -0.4741 C   0  0  0  0  0  0  0  0  0  0  0  0
    1.8971    0.5820   -0.0251 C   0  0  0  0  0  0  0  0  0  0  0  0
    2.6279   -0.5261    0.3472 C   0  0  0  0  0  0  0  0  0  0  0  0
    2.0484   -1.6772    0.7841 O   0  0  0  0  0  0  0  0  0  0  0  0
    0.6822   -1.9613    0.9416 C   0  0  2  0  0  0  0  0  0  0  0  0
    0.3961   -2.3868    2.3579 C   0  0  0  0  0  0  0  0  0  0  0  0
    0.3517   -3.0410   -0.0615 C   0  0  0  0  0  0  0  0  0  0  0  0
   -1.1243   -3.4480    0.0098 C   0  0  0  0  0  0  0  0  0  0  0  0
   -1.9850   -2.5293   -0.2087 O   0  0  0  0  0  0  0  0  0  0  0  0
   -2.8073   -1.5764   -0.5539 C   0  0  0  0  0  0  0  0  0  0  0  0
   -2.7460   -0.9442   -1.8125 C   0  0  0  0  0  0  0  0  0  0  0  0
   -3.6262    0.0524   -2.1379 C   0  0  0  0  0  0  0  0  0  0  0  0
   -4.6027    0.4857   -1.2693 C   0  0  0  0  0  0  0  0  0  0  0  0
   -5.5492    1.5484   -1.6614 C   0  0  0  0  0  0  0  0  0  0  0  0
   -5.3099    2.8288   -0.9509 C   0  0  0  0  0  0  0  0  0  0  0  0
   -3.9794    3.3615   -1.2083 C   0  0  0  0  0  0  0  0  0  0  0  0
   -3.1570    2.8149   -1.9347 O   0  0  0  0  0  0  0  0  0  0  0  0
   -3.6107    4.5682   -0.5939 O   0  0  0  0  0  0  0  0  0  0  0  0
   -4.6970   -0.1081   -0.0266 C   0  0  0  0  0  0  0  0  0  0  0  0
   -5.7535    0.3297    0.9568 C   0  0  0  0  0  0  0  0  0  0  0  0
   -3.8179   -1.1026    0.2961 C   0  0  0  0  0  0  0  0  0  0  0  0
    4.0245   -0.4731    0.2754 C   0  0  0  0  0  0  0  0  0  0  0  0
    4.8373   -1.6381    0.6685 C   0  0  0  0  0  0  0  0  0  0  0  0
    4.4474   -2.8180    1.1174 N   0  0  0  0  0  0  0  0  0  0  0  0
    5.5538   -3.5514    1.3400 C   0  0  0  0  0  0  0  0  0  0  0  0
    6.6371   -2.7690    1.0080 C   0  0  0  0  0  0  0  0  0  0  0  0
    6.1432   -1.6340    0.6125 O   0  0  0  0  0  0  0  0  0  0  0  0
    4.5851    0.6979   -0.1687 C   0  0  0  0  0  0  0  0  0  0  0  0
    5.9588    3.7159    0.4526 H   0  0  0  0  0  0  0  0  0  0  0  0
    4.8802    5.0201   -0.2058 H   0  0  0  0  0  0  0  0  0  0  0  0
    4.2685    3.8450    0.9865 H   0  0  0  0  0  0  0  0  0  0  0  0
    5.5278    2.6627   -1.4916 H   0  0  0  0  0  0  0  0  0  0  0  0
    3.9782    3.4584   -1.8127 H   0  0  0  0  0  0  0  0  0  0  0  0
    1.8817    2.6169   -0.7595 H   0  0  0  0  0  0  0  0  0  0  0  0
    0.8088    0.5982    0.0100 H   0  0  0  0  0  0  0  0  0  0  0  0
    0.0210   -1.0998    0.7224 H   0  0  0  0  0  0  0  0  0  0  0  0
    0.9530   -1.6784    3.0241 H   0  0  0  0  0  0  0  0  0  0  0  0
   -0.6778   -2.2658    2.6268 H   0  0  0  0  0  0  0  0  0  0  0  0
    0.7871   -3.3897    2.6065 H   0  0  0  0  0  0  0  0  0  0  0  0
    0.5124   -2.6454   -1.0824 H   0  0  0  0  0  0  0  0  0  0  0  0
    0.9723   -3.9478    0.0459 H   0  0  0  0  0  0  0  0  0  0  0  0
   -1.1668   -4.0218    0.9985 H   0  0  0  0  0  0  0  0  0  0  0  0
   -1.2385   -4.3254   -0.7255 H   0  0  0  0  0  0  0  0  0  0  0  0
   -1.9700   -1.2983   -2.4840 H   0  0  0  0  0  0  0  0  0  0  0  0
   -3.5241    0.4761   -3.1328 H   0  0  0  0  0  0  0  0  0  0  0  0
   -5.4942    1.7110   -2.7767 H   0  0  0  0  0  0  0  0  0  0  0  0
   -6.5994    1.1627   -1.5208 H   0  0  0  0  0  0  0  0  0  0  0  0
   -6.0964    3.5527   -1.3419 H   0  0  0  0  0  0  0  0  0  0  0  0
   -5.4197    2.7252    0.1527 H   0  0  0  0  0  0  0  0  0  0  0  0
   -2.7447    5.0056   -0.8689 H   0  0  0  0  0  0  0  0  0  0  0  0
   -6.0796   -0.6307    1.4537 H   0  0  0  0  0  0  0  0  0  0  0  0
   -5.3539    0.9593    1.7542 H   0  0  0  0  0  0  0  0  0  0  0  0
   -6.6625    0.7061    0.4549 H   0  0  0  0  0  0  0  0  0  0  0  0
   -3.8642   -1.5947    1.2720 H   0  0  0  0  0  0  0  0  0  0  0  0
    5.6387   -4.5735    1.7117 H   0  0  0  0  0  0  0  0  0  0  0  0
    7.6857   -3.0645    1.0725 H   0  0  0  0  0  0  0  0  0  0  0  0
    5.6878    0.7098   -0.2149 H   0  0  0  0  0  0  0  0  0  0  0  0
  1  2  1  0
  2  3  1  0
  3  4  2  0
  4  5  1  0
  5  6  2  0
  6  7  1  0
  7  8  1  0
  8  9  1  0
  8 10  1  0
 10 11  1  0
 11 12  1  0
 12 13  1  0
 13 14  2  0
 14 15  1  0
 15 16  2  0
 16 17  1  0
 17 18  1  0
 18 19  1  0
 19 20  2  0
 19 21  1  0
 16 22  1  0
 22 23  1  0
 22 24  2  0
  6 25  1  0
 25 26  1  0
 26 27  2  0
 27 28  1  0
 28 29  2  0
 29 30  1  0
 25 31  2  0
 31  3  1  0
 24 13  1  0
 30 26  1  0
  1 32  1  0
  1 33  1  0
  1 34  1  0
  2 35  1  0
  2 36  1  0
  4 37  1  0
  5 38  1  0
  8 39  1  6
  9 40  1  0
  9 41  1  0
  9 42  1  0
 10 43  1  0
 10 44  1  0
 11 45  1  0
 11 46  1  0
 14 47  1  0
 15 48  1  0
 17 49  1  0
 17 50  1  0
 18 51  1  0
 18 52  1  0
 21 53  1  0
 23 54  1  0
 23 55  1  0
 23 56  1  0
 24 57  1  0
 28 58  1  0
 29 59  1  0
 31 60  1  0
M  END
$$$$
