@<TRIPOS>MOLECULE
*****
 37 40 0 0 0
SMALL
GASTEIGER

@<TRIPOS>ATOM
      1 O          -2.5659   -2.3121   -0.6718 O.3     1  UNL1       -0.5055
      2 C          -2.3553   -0.9718   -0.3405 C.ar    1  UNL1        0.1378
      3 C          -1.1082   -0.3405   -0.2177 C.ar    1  UNL1        0.0835
      4 C          -0.0185   -1.2828   -0.4872 C.3     1  UNL1        0.0182
      5 C           1.3379   -0.7336   -0.3996 C.ar    1  UNL1        0.0835
      6 C           2.0433   -0.4471    0.7449 C.ar    1  UNL1        0.1378
      7 O           1.4265   -0.6889    1.9430 O.3     1  UNL1       -0.5055
      8 C           3.3202    0.0630    0.5979 C.ar    1  UNL1        0.0593
      9 C           3.9267    0.3007   -0.6233 C.ar    1  UNL1        0.1426
     10 O           3.2315    0.0189   -1.6897 O.2     1  UNL1       -0.4218
     11 C           2.0138   -0.4677   -1.5959 C.ar    1  UNL1        0.3443
     12 O           1.4430   -0.7001   -2.6891 O.2     1  UNL1       -0.2447
     13 C           5.2052    0.8109   -0.7135 C.ar    1  UNL1       -0.0185
     14 C           5.9451    1.1104    0.4288 C.ar    1  UNL1       -0.0582
     15 C           5.3236    0.8666    1.6507 C.ar    1  UNL1       -0.0609
     16 C           4.0473    0.3574    1.7412 C.ar    1  UNL1       -0.0475
     17 C          -1.1112    0.9872    0.1167 C.ar    1  UNL1        0.3443
     18 O           0.0410    1.4644    0.2034 O.2     1  UNL1       -0.2447
     19 O          -2.2318    1.6405    0.3135 O.2     1  UNL1       -0.4218
     20 C          -3.4212    1.0720    0.2047 C.ar    1  UNL1        0.1426
     21 C          -3.5287   -0.2607   -0.1277 C.ar    1  UNL1        0.0593
     22 C          -4.7884   -0.8462   -0.2392 C.ar    1  UNL1       -0.0475
     23 C          -5.9143   -0.0849   -0.0157 C.ar    1  UNL1       -0.0609
     24 C          -5.8371    1.2553    0.3198 C.ar    1  UNL1       -0.0582
     25 C          -4.5639    1.8121    0.4237 C.ar    1  UNL1       -0.0185
     26 H          -1.9179   -3.0335   -0.3993 H       1  UNL1        0.2922
     27 H          -0.2063   -1.7576   -1.4926 H       1  UNL1        0.0368
     28 H          -0.1711   -2.1400    0.2321 H       1  UNL1        0.0368
     29 H           1.3202   -1.6163    2.3358 H       1  UNL1        0.2922
     30 H           5.5978    0.9642   -1.7089 H       1  UNL1        0.0654
     31 H           6.9244    1.5000    0.2637 H       1  UNL1        0.0619
     32 H           5.9482    1.1190    2.4998 H       1  UNL1        0.0618
     33 H           3.6212    0.1906    2.7196 H       1  UNL1        0.0626
     34 H          -4.8600   -1.8969   -0.5016 H       1  UNL1        0.0626
     35 H          -6.8469   -0.6062   -0.1208 H       1  UNL1        0.0618
     36 H          -6.7556    1.8071    0.4860 H       1  UNL1        0.0619
     37 H          -4.5147    2.8465    0.6827 H       1  UNL1        0.0654
@<TRIPOS>BOND
     1     1     2    1
     2     2     3   ar
     3     3     4    1
     4     4     5    1
     5     5     6   ar
     6     6     7    1
     7     6     8   ar
     8     8     9   ar
     9     9    10   ar
    10    10    11   ar
    11    11    12    2
    12     9    13   ar
    13    13    14   ar
    14    14    15   ar
    15    15    16   ar
    16     3    17   ar
    17    17    18    2
    18    17    19   ar
    19    19    20   ar
    20    20    21   ar
    21    21    22   ar
    22    22    23   ar
    23    23    24   ar
    24    24    25   ar
    25    21     2   ar
    26    11     5   ar
    27    25    20   ar
    28    16     8   ar
    29     1    26    1
    30     4    27    1
    31     4    28    1
    32     7    29    1
    33    13    30    1
    34    14    31    1
    35    15    32    1
    36    16    33    1
    37    22    34    1
    38    23    35    1
    39    24    36    1
    40    25    37    1
