@<TRIPOS>MOLECULE
*****
 48 51 0 0 0
SMALL
GASTEIGER

@<TRIPOS>ATOM
      1 C           7.2556   -1.5414    1.1148 C.3     1  UNL1       -0.0280
      2 C           6.2369   -1.4038    0.0167 C.3     1  UNL1        0.0962
      3 C           6.8100   -2.0574   -1.2255 C.3     1  UNL1       -0.0280
      4 O           5.0049   -1.9841    0.3339 O.3     1  UNL1       -0.4739
      5 C           3.8290   -1.2466    0.3480 C.ar    1  UNL1        0.2128
      6 C           3.6220    0.0929    0.0797 C.ar    1  UNL1        0.0440
      7 C           2.2814    0.3936    0.2167 C.ar    1  UNL1        0.1654
      8 N           1.6702    1.6693    0.0246 N.ar    1  UNL1       -0.2657
      9 C           2.2681    2.8572   -0.1623 C.ar    1  UNL1        0.1040
     10 N           1.3387    3.8277   -0.3049 N.ar    1  UNL1       -0.2337
     11 C           0.1243    3.2652   -0.2096 C.ar    1  UNL1        0.1084
     12 C          -1.1684    3.7375   -0.2727 C.ar    1  UNL1       -0.0294
     13 C          -2.1892    2.8127   -0.1230 C.ar    1  UNL1       -0.0197
     14 C          -1.9536    1.4732    0.0811 C.ar    1  UNL1        0.1217
     15 N          -3.0224    0.5182    0.2323 N.pl3   1  UNL1       -0.3210
     16 C          -4.4070    0.8716    0.1521 C.3     1  UNL1        0.0614
     17 C          -4.7783    1.4236   -1.2134 C.3     1  UNL1       -0.0410
     18 C          -5.2289   -0.3433    0.3908 C.ar    1  UNL1        0.0613
     19 C          -4.8408   -1.1475    1.4511 C.ar    1  UNL1       -0.0359
     20 C          -5.5504   -2.2958    1.7416 C.ar    1  UNL1       -0.0232
     21 C          -6.6391   -2.5706    0.9215 C.ar    1  UNL1        0.1414
     22 F          -7.3333   -3.6965    1.2076 F       1  UNL1       -0.2039
     23 C          -6.9934   -1.7402   -0.1285 C.ar    1  UNL1        0.0631
     24 N          -6.2797   -0.6472   -0.3680 N.ar    1  UNL1       -0.2552
     25 N          -0.6887    1.0623    0.1350 N.ar    1  UNL1       -0.2125
     26 C           0.3479    1.9123   -0.0032 C.ar    1  UNL1        0.1679
     27 N           1.6968   -0.7658    0.5653 N.ar    1  UNL1       -0.1526
     28 N           2.6070   -1.7317    0.6428 N.ar    1  UNL1       -0.2449
     29 H           7.2168   -2.5595    1.5887 H       1  UNL1        0.0265
     30 H           8.2595   -1.4677    0.6386 H       1  UNL1        0.0265
     31 H           7.2103   -0.7477    1.8724 H       1  UNL1        0.0265
     32 H           6.1207   -0.3268   -0.2061 H       1  UNL1        0.0728
     33 H           7.4938   -1.3280   -1.7193 H       1  UNL1        0.0265
     34 H           5.9687   -2.3466   -1.8663 H       1  UNL1        0.0265
     35 H           7.4194   -2.9061   -0.8926 H       1  UNL1        0.0265
     36 H           4.4060    0.8041   -0.1990 H       1  UNL1        0.0708
     37 H           3.3419    2.9779   -0.1886 H       1  UNL1        0.1033
     38 H          -1.3628    4.7883   -0.4328 H       1  UNL1        0.0641
     39 H          -3.2246    3.1337   -0.1615 H       1  UNL1        0.0652
     40 H          -2.7808   -0.4812    0.4089 H       1  UNL1        0.1481
     41 H          -4.7137    1.6033    0.9312 H       1  UNL1        0.0560
     42 H          -5.5094    0.7316   -1.7167 H       1  UNL1        0.0251
     43 H          -5.3033    2.3863   -1.0735 H       1  UNL1        0.0251
     44 H          -3.8953    1.5970   -1.8611 H       1  UNL1        0.0251
     45 H          -3.9843   -0.8971    2.0674 H       1  UNL1        0.0637
     46 H          -5.2572   -2.9288    2.5645 H       1  UNL1        0.0647
     47 H          -7.8593   -2.0441   -0.7082 H       1  UNL1        0.0859
     48 H           2.4341   -2.7339    0.8935 H       1  UNL1        0.1920
@<TRIPOS>BOND
     1     1     2    1
     2     2     3    1
     3     2     4    1
     4     4     5    1
     5     5     6   ar
     6     6     7   ar
     7     7     8    1
     8     8     9   ar
     9     9    10   ar
    10    10    11   ar
    11    11    12   ar
    12    12    13   ar
    13    13    14   ar
    14    14    15    1
    15    15    16    1
    16    16    17    1
    17    16    18    1
    18    18    19   ar
    19    19    20   ar
    20    20    21   ar
    21    21    22    1
    22    21    23   ar
    23    23    24   ar
    24    14    25   ar
    25    25    26   ar
    26     7    27   ar
    27    27    28   ar
    28    28     5   ar
    29    26     8   ar
    30    26    11   ar
    31    24    18   ar
    32     1    29    1
    33     1    30    1
    34     1    31    1
    35     2    32    1
    36     3    33    1
    37     3    34    1
    38     3    35    1
    39     6    36    1
    40     9    37    1
    41    12    38    1
    42    13    39    1
    43    15    40    1
    44    16    41    1
    45    17    42    1
    46    17    43    1
    47    17    44    1
    48    19    45    1
    49    20    46    1
    50    23    47    1
    51    28    48    1
