@<TRIPOS>MOLECULE
*****
 42 45 0 0 0
SMALL
GASTEIGER

@<TRIPOS>ATOM
      1 C           5.5173   -2.3440    0.4557 C.3     1  UNL1       -0.0396
      2 C           4.7151   -1.3174   -0.2819 C.ar    1  UNL1       -0.0484
      3 C           5.3070   -0.7283   -1.3838 C.ar    1  UNL1       -0.0587
      4 C           4.5754    0.2132   -2.0585 C.ar    1  UNL1       -0.0595
      5 C           3.2933    0.5834   -1.6813 C.ar    1  UNL1       -0.0361
      6 C           2.7149   -0.0172   -0.5741 C.ar    1  UNL1        0.0695
      7 N           1.4100    0.3895   -0.1385 N.ar    1  UNL1       -0.1945
      8 N           0.4823   -0.4587    0.2460 N.ar    1  UNL1       -0.1474
      9 C          -0.7451   -0.0887    0.7112 C.ar    1  UNL1        0.1529
     10 N          -1.6976   -1.0254    1.1465 N.pl3   1  UNL1       -0.2829
     11 C          -2.9016   -1.3897    0.5329 C.ar    1  UNL1        0.1196
     12 C          -3.5121   -0.9354   -0.6299 C.ar    1  UNL1        0.0006
     13 C          -4.6798   -1.6375   -0.7636 C.ar    1  UNL1        0.0616
     14 C          -5.7398   -1.5613   -1.8267 C.3     1  UNL1       -0.0206
     15 N          -4.8008   -2.4905    0.2614 N.ar    1  UNL1       -0.1775
     16 N          -3.7496   -2.3399    1.0240 N.ar    1  UNL1       -0.2637
     17 C          -0.9960    1.2648    0.7655 C.ar    1  UNL1        0.0291
     18 C          -2.2164    1.7296    1.2360 C.ar    1  UNL1       -0.0505
     19 C          -2.4386    3.0755    1.2902 C.ar    1  UNL1       -0.0611
     20 C          -1.4592    3.9606    0.8810 C.ar    1  UNL1       -0.0610
     21 C          -0.2455    3.5211    0.4130 C.ar    1  UNL1       -0.0487
     22 C          -0.0043    2.1615    0.3521 C.ar    1  UNL1        0.0517
     23 C           1.2225    1.7320   -0.1094 C.ar    1  UNL1        0.2797
     24 O           2.0982    2.5553   -0.4737 O.2     1  UNL1       -0.2652
     25 C           3.4370   -0.9694    0.1205 C.ar    1  UNL1       -0.0332
     26 H           6.3816   -2.6765   -0.1591 H       1  UNL1        0.0278
     27 H           4.8952   -3.2447    0.6972 H       1  UNL1        0.0278
     28 H           5.8583   -1.9279    1.4215 H       1  UNL1        0.0278
     29 H           6.2999   -0.9986   -1.6946 H       1  UNL1        0.0620
     30 H           5.0293    0.6872   -2.9179 H       1  UNL1        0.0618
     31 H           2.7937    1.3256   -2.2779 H       1  UNL1        0.0639
     32 H          -1.4683   -1.5077    2.0729 H       1  UNL1        0.1550
     33 H          -3.1349   -0.1857   -1.2718 H       1  UNL1        0.0670
     34 H          -5.5792   -0.7707   -2.5524 H       1  UNL1        0.0293
     35 H          -5.9171   -2.5599   -2.2352 H       1  UNL1        0.0293
     36 H          -6.6889   -1.3179   -1.2604 H       1  UNL1        0.0293
     37 H          -3.6178   -2.9149    1.9087 H       1  UNL1        0.1903
     38 H          -2.9512    1.0014    1.5461 H       1  UNL1        0.0625
     39 H          -3.4130    3.4037    1.6617 H       1  UNL1        0.0618
     40 H          -1.6216    5.0258    0.9192 H       1  UNL1        0.0618
     41 H           0.5443    4.2100    0.0838 H       1  UNL1        0.0625
     42 H           3.0030   -1.4323    0.9631 H       1  UNL1        0.0641
@<TRIPOS>BOND
     1     1     2    1
     2     2     3   ar
     3     3     4   ar
     4     4     5   ar
     5     5     6   ar
     6     6     7    1
     7     7     8   ar
     8     8     9   ar
     9     9    10    1
    10    10    11    1
    11    11    12   ar
    12    12    13   ar
    13    13    14    1
    14    13    15   ar
    15    15    16   ar
    16     9    17   ar
    17    17    18   ar
    18    18    19   ar
    19    19    20   ar
    20    20    21   ar
    21    21    22   ar
    22    22    23   ar
    23    23    24    2
    24     6    25   ar
    25    25     2   ar
    26    23     7   ar
    27    16    11   ar
    28    22    17   ar
    29     1    26    1
    30     1    27    1
    31     1    28    1
    32     3    29    1
    33     4    30    1
    34     5    31    1
    35    10    32    1
    36    12    33    1
    37    14    34    1
    38    14    35    1
    39    14    36    1
    40    16    37    1
    41    18    38    1
    42    19    39    1
    43    20    40    1
    44    21    41    1
    45    25    42    1
