
     RDKit          3D

 42 45  0  0  0  0  0  0  0  0999 V2000
    5.5173   -2.3440    0.4557 C   0  0  0  0  0  0  0  0  0  0  0  0
    4.7151   -1.3174   -0.2819 C   0  0  0  0  0  0  0  0  0  0  0  0
    5.3070   -0.7283   -1.3838 C   0  0  0  0  0  0  0  0  0  0  0  0
    4.5754    0.2132   -2.0585 C   0  0  0  0  0  0  0  0  0  0  0  0
    3.2933    0.5834   -1.6813 C   0  0  0  0  0  0  0  0  0  0  0  0
    2.7149   -0.0172   -0.5741 C   0  0  0  0  0  0  0  0  0  0  0  0
    1.4100    0.3895   -0.1385 N   0  0  0  0  0  0  0  0  0  0  0  0
    0.4823   -0.4587    0.2460 N   0  0  0  0  0  0  0  0  0  0  0  0
   -0.7451   -0.0887    0.7112 C   0  0  0  0  0  0  0  0  0  0  0  0
   -1.6976   -1.0254    1.1465 N   0  0  0  0  0  0  0  0  0  0  0  0
   -2.9016   -1.3897    0.5329 C   0  0  0  0  0  0  0  0  0  0  0  0
   -3.5121   -0.9354   -0.6299 C   0  0  0  0  0  0  0  0  0  0  0  0
   -4.6798   -1.6375   -0.7636 C   0  0  0  0  0  0  0  0  0  0  0  0
   -5.7398   -1.5613   -1.8267 C   0  0  0  0  0  0  0  0  0  0  0  0
   -4.8008   -2.4905    0.2614 N   0  0  0  0  0  0  0  0  0  0  0  0
   -3.7496   -2.3399    1.0240 N   0  0  0  0  0  0  0  0  0  0  0  0
   -0.9960    1.2648    0.7655 C   0  0  0  0  0  0  0  0  0  0  0  0
   -2.2164    1.7296    1.2360 C   0  0  0  0  0  0  0  0  0  0  0  0
   -2.4386    3.0755    1.2902 C   0  0  0  0  0  0  0  0  0  0  0  0
   -1.4592    3.9606    0.8810 C   0  0  0  0  0  0  0  0  0  0  0  0
   -0.2455    3.5211    0.4130 C   0  0  0  0  0  0  0  0  0  0  0  0
   -0.0043    2.1615    0.3521 C   0  0  0  0  0  0  0  0  0  0  0  0
    1.2225    1.7320   -0.1094 C   0  0  0  0  0  0  0  0  0  0  0  0
    2.0982    2.5553   -0.4737 O   0  0  0  0  0  0  0  0  0  0  0  0
    3.4370   -0.9694    0.1205 C   0  0  0  0  0  0  0  0  0  0  0  0
    6.3816   -2.6765   -0.1591 H   0  0  0  0  0  0  0  0  0  0  0  0
    4.8952   -3.2447    0.6972 H   0  0  0  0  0  0  0  0  0  0  0  0
    5.8583   -1.9279    1.4215 H   0  0  0  0  0  0  0  0  0  0  0  0
    6.2999   -0.9986   -1.6946 H   0  0  0  0  0  0  0  0  0  0  0  0
    5.0293    0.6872   -2.9179 H   0  0  0  0  0  0  0  0  0  0  0  0
    2.7937    1.3256   -2.2779 H   0  0  0  0  0  0  0  0  0  0  0  0
   -1.4683   -1.5077    2.0729 H   0  0  0  0  0  0  0  0  0  0  0  0
   -3.1349   -0.1857   -1.2718 H   0  0  0  0  0  0  0  0  0  0  0  0
   -5.5792   -0.7707   -2.5524 H   0  0  0  0  0  0  0  0  0  0  0  0
   -5.9171   -2.5599   -2.2352 H   0  0  0  0  0  0  0  0  0  0  0  0
   -6.6889   -1.3179   -1.2604 H   0  0  0  0  0  0  0  0  0  0  0  0
   -3.6178   -2.9149    1.9087 H   0  0  0  0  0  0  0  0  0  0  0  0
   -2.9512    1.0014    1.5461 H   0  0  0  0  0  0  0  0  0  0  0  0
   -3.4130    3.4037    1.6617 H   0  0  0  0  0  0  0  0  0  0  0  0
   -1.6216    5.0258    0.9192 H   0  0  0  0  0  0  0  0  0  0  0  0
    0.5443    4.2100    0.0838 H   0  0  0  0  0  0  0  0  0  0  0  0
    3.0030   -1.4323    0.9631 H   0  0  0  0  0  0  0  0  0  0  0  0
  1  2  1  0
  2  3  2  0
  3  4  1  0
  4  5  2  0
  5  6  1  0
  6  7  1  0
  7  8  1  0
  8  9  2  0
  9 10  1  0
 10 11  1  0
 11 12  2  0
 12 13  1  0
 13 14  1  0
 13 15  2  0
 15 16  1  0
  9 17  1  0
 17 18  2  0
 18 19  1  0
 19 20  2  0
 20 21  1  0
 21 22  2  0
 22 23  1  0
 23 24  2  0
  6 25  2  0
 25  2  1  0
 23  7  1  0
 16 11  1  0
 22 17  1  0
  1 26  1  0
  1 27  1  0
  1 28  1  0
  3 29  1  0
  4 30  1  0
  5 31  1  0
 10 32  1  0
 12 33  1  0
 14 34  1  0
 14 35  1  0
 14 36  1  0
 16 37  1  0
 18 38  1  0
 19 39  1  0
 20 40  1  0
 21 41  1  0
 25 42  1  0
M  END
$$$$
