
     RDKit          3D

 41 42  0  0  0  0  0  0  0  0999 V2000
   -1.1616   -0.6233   -2.1487 O   0  0  0  0  0  0  0  0  0  0  0  0
   -0.9747   -1.3270   -0.9891 C   0  0  1  0  0  0  0  0  0  0  0  0
    0.2666   -0.8964   -0.2336 C   0  0  0  0  0  0  0  0  0  0  0  0
    1.3644   -1.1226   -1.1074 O   0  0  0  0  0  0  0  0  0  0  0  0
    2.6382   -0.8391   -0.7085 N   0  0  0  0  0  0  0  0  0  0  0  0
    2.9787    0.2894   -0.1576 C   0  0  0  0  0  0  0  0  0  0  0  0
    2.5986   -1.2536   -0.8921 Cl  0  0  0  0  0  0  0  0  0  0  0  0
    4.3751    0.4641    0.2245 C   0  0  0  0  0  0  0  0  0  0  0  0
    5.3736   -0.4598    0.0564 C   0  0  0  0  0  0  0  0  0  0  0  0
    6.6462   -0.2577    0.4227 N   0  0  0  0  0  4  0  0  0  0  0  0
    7.5388   -1.2827    0.1886 O   0  0  0  0  0  1  0  0  0  0  0  0
    6.9854    0.9204    0.9935 C   0  0  0  0  0  0  0  0  0  0  0  0
    6.0321    1.8975    1.1941 C   0  0  0  0  0  0  0  0  0  0  0  0
    4.7243    1.6813    0.8140 C   0  0  0  0  0  0  0  0  0  0  0  0
   -2.1819   -1.4063   -0.1168 C   0  0  0  0  0  0  0  0  0  0  0  0
   -2.7307   -0.2188    0.3851 N   0  0  0  0  0  0  0  0  0  0  0  0
   -3.9176   -0.3980    1.1959 C   0  0  0  0  0  0  0  0  0  0  0  0
   -5.0741    0.4283    0.6632 C   0  0  0  0  0  0  0  0  0  0  0  0
   -5.0104    0.3365   -0.8439 C   0  0  0  0  0  0  0  0  0  0  0  0
   -3.8503    1.1771   -1.2946 C   0  0  0  0  0  0  0  0  0  0  0  0
   -2.7005    0.9757   -0.3399 C   0  0  0  0  0  0  0  0  0  0  0  0
   -0.6664   -1.0150   -2.9175 H   0  0  0  0  0  0  0  0  0  0  0  0
   -0.7513   -2.3901   -1.3090 H   0  0  0  0  0  0  0  0  0  0  0  0
    0.3882   -1.5557    0.6491 H   0  0  0  0  0  0  0  0  0  0  0  0
    0.2194    0.1571    0.0491 H   0  0  0  0  0  0  0  0  0  0  0  0
    5.0670   -1.3878   -0.4019 H   0  0  0  0  0  0  0  0  0  0  0  0
    8.0431    1.0195    1.2691 H   0  0  0  0  0  0  0  0  0  0  0  0
    6.4459    2.7909    1.6615 H   0  0  0  0  0  0  0  0  0  0  0  0
    4.0382    2.5097    1.0109 H   0  0  0  0  0  0  0  0  0  0  0  0
   -1.8605   -2.0219    0.7839 H   0  0  0  0  0  0  0  0  0  0  0  0
   -2.9077   -2.0812   -0.6277 H   0  0  0  0  0  0  0  0  0  0  0  0
   -3.7167   -0.1680    2.2578 H   0  0  0  0  0  0  0  0  0  0  0  0
   -4.2184   -1.4582    1.1119 H   0  0  0  0  0  0  0  0  0  0  0  0
   -6.0159    0.0293    1.0589 H   0  0  0  0  0  0  0  0  0  0  0  0
   -4.9420    1.4787    0.9696 H   0  0  0  0  0  0  0  0  0  0  0  0
   -5.9669    0.6348   -1.3186 H   0  0  0  0  0  0  0  0  0  0  0  0
   -4.8156   -0.7149   -1.1197 H   0  0  0  0  0  0  0  0  0  0  0  0
   -4.1554    2.2430   -1.3416 H   0  0  0  0  0  0  0  0  0  0  0  0
   -3.5753    0.8866   -2.3454 H   0  0  0  0  0  0  0  0  0  0  0  0
   -2.7650    1.8257    0.4012 H   0  0  0  0  0  0  0  0  0  0  0  0
   -1.7649    1.1325   -0.8726 H   0  0  0  0  0  0  0  0  0  0  0  0
  1  2  1  0
  2  3  1  0
  3  4  1  0
  4  5  1  0
  5  6  2  3
  6  7  1  0
  6  8  1  0
  8  9  2  0
  9 10  1  0
 10 11  1  0
 10 12  2  0
 12 13  1  0
 13 14  2  0
  2 15  1  0
 15 16  1  0
 16 17  1  0
 17 18  1  0
 18 19  1  0
 19 20  1  0
 20 21  1  0
 14  8  1  0
 21 16  1  0
  1 22  1  0
  2 23  1  6
  3 24  1  0
  3 25  1  0
  9 26  1  0
 12 27  1  0
 13 28  1  0
 14 29  1  0
 15 30  1  0
 15 31  1  0
 17 32  1  0
 17 33  1  0
 18 34  1  0
 18 35  1  0
 19 36  1  0
 19 37  1  0
 20 38  1  0
 20 39  1  0
 21 40  1  0
 21 41  1  0
M  CHG  2  10   1  11  -1
M  END
$$$$
