@<TRIPOS>MOLECULE
*****
 126 133 0 0 0
SMALL
GASTEIGER

@<TRIPOS>ATOM
      1 C          10.7780    2.6131    0.9386 C.3     1  UNL1       -0.0437
      2 C          10.3556    1.5008    0.0284 C.2     1  UNL1       -0.0739
      3 C          11.2771    0.8073   -0.5899 C.2     1  UNL1       -0.0812
      4 C          10.9968   -0.2976   -1.5419 C.3     1  UNL1       -0.0122
      5 C          11.3263   -1.5849   -0.8473 C.3     1  UNL1       -0.0055
      6 C          10.4600   -1.6899    0.3729 C.ar    1  UNL1        0.0248
      7 N          10.8734   -2.4588    1.3924 N.ar    1  UNL1       -0.3259
      8 C          10.1664   -2.6168    2.5289 C.ar    1  UNL1        0.2489
      9 O          10.5654   -3.3431    3.4811 O.2     1  UNL1       -0.2679
     10 C           8.9701   -1.9433    2.6129 C.ar    1  UNL1        0.0031
     11 C           8.5092   -1.1448    1.5912 C.ar    1  UNL1       -0.0498
     12 C           9.2858   -1.0304    0.4586 C.ar    1  UNL1       -0.0039
     13 C           8.7457   -0.1457   -0.6313 C.3     1  UNL1        0.0710
     14 C           8.8890    1.2617   -0.1126 C.3     1  UNL1       -0.0059
     15 C           9.5245   -0.2522   -1.8956 C.3     1  UNL1       -0.0083
     16 C           9.1173   -1.3327   -2.8320 C.3     1  UNL1       -0.0460
     17 C           8.2974   -2.4225   -2.2117 C.3     1  UNL1       -0.0368
     18 C           7.2287   -1.9253   -1.2938 C.3     1  UNL1        0.0156
     19 N           7.3991   -0.5462   -0.8822 N.am    1  UNL1       -0.2910
     20 C           6.2611    0.2970   -0.7732 C.2     1  UNL1        0.2175
     21 O           6.3634    1.4976   -0.3908 O.2     1  UNL1       -0.2755
     22 C           4.8916   -0.1835   -1.1037 C.3     1  UNL1        0.0369
     23 C           3.9088    0.9509   -0.9021 C.3     1  UNL1        0.0069
     24 N           3.8881    1.3866    0.4537 N.3     1  UNL1       -0.3049
     25 C           3.1448    2.5644    0.7173 C.3     1  UNL1       -0.0127
     26 C           3.8666    0.3580    1.4243 C.3     1  UNL1       -0.0014
     27 C           2.6625   -0.5017    1.5204 C.3     1  UNL1       -0.0402
     28 C           1.4200    0.2549    1.8316 C.3     1  UNL1       -0.0519
     29 C           0.1718   -0.5871    1.9646 C.3     1  UNL1       -0.0530
     30 C          -0.1719   -1.3623    0.7155 C.3     1  UNL1       -0.0530
     31 C          -0.3464   -0.4996   -0.4792 C.3     1  UNL1       -0.0519
     32 C          -1.3755    0.5551   -0.4312 C.3     1  UNL1       -0.0402
     33 C          -2.7967    0.1442   -0.2553 C.3     1  UNL1       -0.0014
     34 N          -3.6050    1.3070   -0.2096 N.3     1  UNL1       -0.3049
     35 C          -3.7344    2.0994   -1.3579 C.3     1  UNL1       -0.0127
     36 C          -4.2880    1.6257    0.9685 C.3     1  UNL1        0.0069
     37 C          -5.4298    0.7642    1.3929 C.3     1  UNL1        0.0369
     38 C          -6.5535    0.7677    0.3904 C.2     1  UNL1        0.2175
     39 O          -6.3026    1.3578   -0.6771 O.2     1  UNL1       -0.2755
     40 N          -7.7568    0.1479    0.6807 N.am    1  UNL1       -0.2910
     41 C          -7.8601   -0.5021    2.0034 C.3     1  UNL1        0.0156
     42 C          -8.8800    0.3250    2.7824 C.3     1  UNL1       -0.0368
     43 C         -10.2008    0.3565    2.0304 C.3     1  UNL1       -0.0460
     44 C          -9.9771    0.8963    0.6629 C.3     1  UNL1       -0.0083
     45 C         -11.2411    0.9887   -0.1230 C.3     1  UNL1       -0.0122
     46 C         -10.9636    1.8896   -1.2765 C.2     1  UNL1       -0.0812
     47 C          -9.6666    1.9512   -1.6474 C.2     1  UNL1       -0.0739
     48 C          -9.0456    3.1843   -2.1822 C.3     1  UNL1       -0.0437
     49 C          -8.8682    0.6802   -1.4965 C.3     1  UNL1       -0.0059
     50 C          -8.9206    0.0990   -0.1331 C.3     1  UNL1        0.0710
     51 C          -9.4711   -1.3010   -0.2912 C.ar    1  UNL1       -0.0039
     52 C          -8.6756   -2.4073   -0.3018 C.ar    1  UNL1       -0.0498
     53 C          -9.2310   -3.6670   -0.4667 C.ar    1  UNL1        0.0031
     54 C         -10.5875   -3.7751   -0.6182 C.ar    1  UNL1        0.2489
     55 O         -11.1491   -4.9024   -0.7713 O.2     1  UNL1       -0.2679
     56 N         -11.3715   -2.7030   -0.6107 N.ar    1  UNL1       -0.3259
     57 C         -10.8259   -1.4586   -0.4485 C.ar    1  UNL1        0.0248
     58 C         -11.8096   -0.3372   -0.4951 C.3     1  UNL1       -0.0055
     59 H           9.9635    2.9441    1.6018 H       1  UNL1        0.0274
     60 H          11.6102    2.2848    1.5930 H       1  UNL1        0.0274
     61 H          11.1412    3.4892    0.3570 H       1  UNL1        0.0274
     62 H          12.3344    1.0309   -0.4164 H       1  UNL1        0.0575
     63 H          11.6238   -0.2333   -2.4644 H       1  UNL1        0.0350
     64 H          11.2602   -2.4666   -1.4846 H       1  UNL1        0.0333
     65 H          12.3716   -1.5243   -0.4511 H       1  UNL1        0.0333
     66 H          11.7887   -2.9860    1.3552 H       1  UNL1        0.1686
     67 H           8.3745   -2.0444    3.5075 H       1  UNL1        0.0672
     68 H           7.5658   -0.6126    1.6584 H       1  UNL1        0.0623
     69 H           8.3463    1.4643    0.8142 H       1  UNL1        0.0334
     70 H           8.5622    2.0344   -0.8619 H       1  UNL1        0.0334
     71 H           9.3862    0.7255   -2.4474 H       1  UNL1        0.0331
     72 H          10.0708   -1.8242   -3.1871 H       1  UNL1        0.0269
     73 H           8.6200   -0.9611   -3.7504 H       1  UNL1        0.0269
     74 H           7.7922   -2.9598   -3.0488 H       1  UNL1        0.0280
     75 H           8.9641   -3.1984   -1.7390 H       1  UNL1        0.0280
     76 H           7.3128   -2.5268   -0.3422 H       1  UNL1        0.0465
     77 H           6.1994   -2.1238   -1.6533 H       1  UNL1        0.0465
     78 H           4.8727   -0.4618   -2.1800 H       1  UNL1        0.0371
     79 H           4.6242   -1.0809   -0.5287 H       1  UNL1        0.0371
     80 H           4.3101    1.8107   -1.5167 H       1  UNL1        0.0431
     81 H           2.9297    0.7121   -1.3448 H       1  UNL1        0.0431
     82 H           3.8880    3.4266    0.6007 H       1  UNL1        0.0391
     83 H           2.8320    2.6276    1.7785 H       1  UNL1        0.0391
     84 H           2.3549    2.8138   -0.0134 H       1  UNL1        0.0391
     85 H           4.8095   -0.2640    1.3662 H       1  UNL1        0.0426
     86 H           3.9772    0.8628    2.4323 H       1  UNL1        0.0426
     87 H           2.5302   -1.1910    0.6587 H       1  UNL1        0.0278
     88 H           2.8357   -1.1963    2.3965 H       1  UNL1        0.0278
     89 H           1.5521    0.7837    2.7954 H       1  UNL1        0.0266
     90 H           1.2655    1.0471    1.0570 H       1  UNL1        0.0266
     91 H          -0.6324    0.0815    2.3038 H       1  UNL1        0.0265
     92 H           0.3864   -1.3371    2.7580 H       1  UNL1        0.0265
     93 H           0.6488   -2.0660    0.5392 H       1  UNL1        0.0265
     94 H          -1.0747   -1.9386    0.9232 H       1  UNL1        0.0265
     95 H          -0.6324   -1.1966   -1.3281 H       1  UNL1        0.0266
     96 H           0.6009   -0.0399   -0.8392 H       1  UNL1        0.0266
     97 H          -1.1447    1.3774    0.2907 H       1  UNL1        0.0278
     98 H          -1.3281    1.0817   -1.4363 H       1  UNL1        0.0278
     99 H          -3.1442   -0.4792   -1.1304 H       1  UNL1        0.0426
    100 H          -2.9618   -0.5094    0.6293 H       1  UNL1        0.0426
    101 H          -2.7065    2.4834   -1.6494 H       1  UNL1        0.0391
    102 H          -4.2734    3.0550   -1.1076 H       1  UNL1        0.0391
    103 H          -4.1259    1.6221   -2.2724 H       1  UNL1        0.0391
    104 H          -3.5393    1.7528    1.8086 H       1  UNL1        0.0431
    105 H          -4.7000    2.6696    0.8517 H       1  UNL1        0.0431
    106 H          -5.1112   -0.2736    1.6482 H       1  UNL1        0.0371
    107 H          -5.8655    1.2399    2.3083 H       1  UNL1        0.0371
    108 H          -6.9240   -0.4784    2.5516 H       1  UNL1        0.0465
    109 H          -8.2786   -1.4978    1.8674 H       1  UNL1        0.0465
    110 H          -8.5101    1.3274    2.9870 H       1  UNL1        0.0280
    111 H          -9.0707   -0.1840    3.7460 H       1  UNL1        0.0280
    112 H         -10.6715   -0.6235    2.0739 H       1  UNL1        0.0269
    113 H         -10.8188    1.1250    2.5768 H       1  UNL1        0.0269
    114 H          -9.5573    1.9194    0.7477 H       1  UNL1        0.0331
    115 H         -11.9661    1.5762    0.5243 H       1  UNL1        0.0350
    116 H         -11.6906    2.4701   -1.8046 H       1  UNL1        0.0575
    117 H          -7.9778    3.1954   -1.8401 H       1  UNL1        0.0274
    118 H          -9.4975    4.1147   -1.7562 H       1  UNL1        0.0274
    119 H          -9.0514    3.2246   -3.2977 H       1  UNL1        0.0274
    120 H          -7.8654    0.8267   -1.8967 H       1  UNL1        0.0334
    121 H          -9.3313   -0.0806   -2.2301 H       1  UNL1        0.0334
    122 H          -7.5913   -2.3101   -0.1956 H       1  UNL1        0.0623
    123 H          -8.6277   -4.5514   -0.4785 H       1  UNL1        0.0672
    124 H         -12.4183   -2.8026   -0.7288 H       1  UNL1        0.1686
    125 H         -12.6518   -0.6189    0.1848 H       1  UNL1        0.0333
    126 H         -12.2045   -0.2678   -1.5367 H       1  UNL1        0.0333
@<TRIPOS>BOND
     1     1     2    1
     2     2     3    2
     3     3     4    1
     4     4     5    1
     5     5     6    1
     6     6     7   ar
     7     7     8   ar
     8     8     9    2
     9     8    10   ar
    10    10    11   ar
    11    11    12   ar
    12    12    13    1
    13    13    14    1
    14    13    15    1
    15    15    16    1
    16    16    17    1
    17    17    18    1
    18    18    19    1
    19    19    20   am
    20    20    21    2
    21    20    22    1
    22    22    23    1
    23    23    24    1
    24    24    25    1
    25    24    26    1
    26    26    27    1
    27    27    28    1
    28    28    29    1
    29    29    30    1
    30    30    31    1
    31    31    32    1
    32    32    33    1
    33    33    34    1
    34    34    35    1
    35    34    36    1
    36    36    37    1
    37    37    38    1
    38    38    39    2
    39    38    40   am
    40    40    41    1
    41    41    42    1
    42    42    43    1
    43    43    44    1
    44    44    45    1
    45    45    46    1
    46    46    47    2
    47    47    48    1
    48    47    49    1
    49    49    50    1
    50    50    51    1
    51    51    52   ar
    52    52    53   ar
    53    53    54   ar
    54    54    55    2
    55    54    56   ar
    56    56    57   ar
    57    57    58    1
    58    14     2    1
    59    50    40    1
    60    57    51   ar
    61    15     4    1
    62    50    44    1
    63    12     6   ar
    64    13    19    1
    65    58    45    1
    66     1    59    1
    67     1    60    1
    68     1    61    1
    69     3    62    1
    70     4    63    1
    71     5    64    1
    72     5    65    1
    73     7    66    1
    74    10    67    1
    75    11    68    1
    76    14    69    1
    77    14    70    1
    78    15    71    1
    79    16    72    1
    80    16    73    1
    81    17    74    1
    82    17    75    1
    83    18    76    1
    84    18    77    1
    85    22    78    1
    86    22    79    1
    87    23    80    1
    88    23    81    1
    89    25    82    1
    90    25    83    1
    91    25    84    1
    92    26    85    1
    93    26    86    1
    94    27    87    1
    95    27    88    1
    96    28    89    1
    97    28    90    1
    98    29    91    1
    99    29    92    1
   100    30    93    1
   101    30    94    1
   102    31    95    1
   103    31    96    1
   104    32    97    1
   105    32    98    1
   106    33    99    1
   107    33   100    1
   108    35   101    1
   109    35   102    1
   110    35   103    1
   111    36   104    1
   112    36   105    1
   113    37   106    1
   114    37   107    1
   115    41   108    1
   116    41   109    1
   117    42   110    1
   118    42   111    1
   119    43   112    1
   120    43   113    1
   121    44   114    1
   122    45   115    1
   123    46   116    1
   124    48   117    1
   125    48   118    1
   126    48   119    1
   127    49   120    1
   128    49   121    1
   129    52   122    1
   130    53   123    1
   131    56   124    1
   132    58   125    1
   133    58   126    1
