@<TRIPOS>MOLECULE
*****
 30 31 0 0 0
SMALL
GASTEIGER

@<TRIPOS>ATOM
      1 O           2.1642   -1.3978   -0.7403 O.2     1  UNL1       -0.2686
      2 C           2.0368   -0.6040    0.2063 C.2     1  UNL1        0.2619
      3 N           3.2539   -0.2455    0.8978 N.am    1  UNL1       -0.3079
      4 C           4.5273   -0.7734    0.5146 C.3     1  UNL1        0.0351
      5 C           4.9212   -0.4403   -0.9016 C.3     1  UNL1        0.0597
      6 O           4.9979    0.9465   -1.1039 O.3     1  UNL1       -0.3935
      7 C           0.7542   -0.0642    0.6020 C.ar    1  UNL1        0.1207
      8 C          -0.4482   -0.3924   -0.0493 C.ar    1  UNL1       -0.0041
      9 C          -1.4749    0.2603    0.5380 C.ar    1  UNL1        0.0946
     10 C          -2.8915    0.2414    0.2212 C.ar    1  UNL1        0.0205
     11 C          -3.7295    1.0402    1.0263 C.ar    1  UNL1       -0.0497
     12 C          -5.0816    1.0757    0.7897 C.ar    1  UNL1       -0.0427
     13 C          -5.6784    0.3549   -0.2172 C.ar    1  UNL1        0.0424
     14 CL         -7.3813    0.4048   -0.5088 Cl      1  UNL1       -0.0835
     15 C          -4.8740   -0.4273   -1.0089 C.ar    1  UNL1       -0.0244
     16 C          -3.4818   -0.4722   -0.7754 C.ar    1  UNL1        0.0516
     17 CL         -2.5101   -1.4964   -1.8290 Cl      1  UNL1       -0.0828
     18 N          -0.8954    0.9800    1.5400 N.ar    1  UNL1       -0.1732
     19 N           0.4017    0.7747    1.5572 N.ar    1  UNL1       -0.2719
     20 H           3.0991    0.4305    1.6943 H       1  UNL1        0.1491
     21 H           4.6158   -1.8712    0.6289 H       1  UNL1        0.0485
     22 H           5.2909   -0.3272    1.1779 H       1  UNL1        0.0485
     23 H           4.3122   -0.9253   -1.6647 H       1  UNL1        0.0573
     24 H           5.9675   -0.8230   -1.0342 H       1  UNL1        0.0573
     25 H           5.7467    1.3270   -0.5812 H       1  UNL1        0.2095
     26 H          -0.4622   -1.0809   -0.8961 H       1  UNL1        0.0662
     27 H          -3.2685    1.6175    1.8292 H       1  UNL1        0.0625
     28 H          -5.7153    1.6937    1.4156 H       1  UNL1        0.0632
     29 H          -5.2858   -1.0132   -1.8120 H       1  UNL1        0.0647
     30 H           1.0890    1.2074    2.2299 H       1  UNL1        0.1891
@<TRIPOS>BOND
     1     1     2    2
     2     2     3   am
     3     3     4    1
     4     4     5    1
     5     5     6    1
     6     2     7    1
     7     7     8   ar
     8     8     9   ar
     9     9    10    1
    10    10    11   ar
    11    11    12   ar
    12    12    13   ar
    13    13    14    1
    14    13    15   ar
    15    15    16   ar
    16    16    17    1
    17     9    18   ar
    18    18    19   ar
    19    19     7   ar
    20    16    10   ar
    21     3    20    1
    22     4    21    1
    23     4    22    1
    24     5    23    1
    25     5    24    1
    26     6    25    1
    27     8    26    1
    28    11    27    1
    29    12    28    1
    30    15    29    1
    31    19    30    1
