
     RDKit          3D

 30 31  0  0  0  0  0  0  0  0999 V2000
    2.1642   -1.3978   -0.7403 O   0  0  0  0  0  0  0  0  0  0  0  0
    2.0368   -0.6040    0.2063 C   0  0  0  0  0  0  0  0  0  0  0  0
    3.2539   -0.2455    0.8978 N   0  0  0  0  0  0  0  0  0  0  0  0
    4.5273   -0.7734    0.5146 C   0  0  0  0  0  0  0  0  0  0  0  0
    4.9212   -0.4403   -0.9016 C   0  0  0  0  0  0  0  0  0  0  0  0
    4.9979    0.9465   -1.1039 O   0  0  0  0  0  0  0  0  0  0  0  0
    0.7542   -0.0642    0.6020 C   0  0  0  0  0  0  0  0  0  0  0  0
   -0.4482   -0.3924   -0.0493 C   0  0  0  0  0  0  0  0  0  0  0  0
   -1.4749    0.2603    0.5380 C   0  0  0  0  0  0  0  0  0  0  0  0
   -2.8915    0.2414    0.2212 C   0  0  0  0  0  0  0  0  0  0  0  0
   -3.7295    1.0402    1.0263 C   0  0  0  0  0  0  0  0  0  0  0  0
   -5.0816    1.0757    0.7897 C   0  0  0  0  0  0  0  0  0  0  0  0
   -5.6784    0.3549   -0.2172 C   0  0  0  0  0  0  0  0  0  0  0  0
   -7.3813    0.4048   -0.5088 Cl  0  0  0  0  0  0  0  0  0  0  0  0
   -4.8740   -0.4273   -1.0089 C   0  0  0  0  0  0  0  0  0  0  0  0
   -3.4818   -0.4722   -0.7754 C   0  0  0  0  0  0  0  0  0  0  0  0
   -2.5101   -1.4964   -1.8290 Cl  0  0  0  0  0  0  0  0  0  0  0  0
   -0.8954    0.9800    1.5400 N   0  0  0  0  0  0  0  0  0  0  0  0
    0.4017    0.7747    1.5572 N   0  0  0  0  0  0  0  0  0  0  0  0
    3.0991    0.4305    1.6943 H   0  0  0  0  0  0  0  0  0  0  0  0
    4.6158   -1.8712    0.6289 H   0  0  0  0  0  0  0  0  0  0  0  0
    5.2909   -0.3272    1.1779 H   0  0  0  0  0  0  0  0  0  0  0  0
    4.3122   -0.9253   -1.6647 H   0  0  0  0  0  0  0  0  0  0  0  0
    5.9675   -0.8230   -1.0342 H   0  0  0  0  0  0  0  0  0  0  0  0
    5.7467    1.3270   -0.5812 H   0  0  0  0  0  0  0  0  0  0  0  0
   -0.4622   -1.0809   -0.8961 H   0  0  0  0  0  0  0  0  0  0  0  0
   -3.2685    1.6175    1.8292 H   0  0  0  0  0  0  0  0  0  0  0  0
   -5.7153    1.6937    1.4156 H   0  0  0  0  0  0  0  0  0  0  0  0
   -5.2858   -1.0132   -1.8120 H   0  0  0  0  0  0  0  0  0  0  0  0
    1.0890    1.2074    2.2299 H   0  0  0  0  0  0  0  0  0  0  0  0
  1  2  2  0
  2  3  1  0
  3  4  1  0
  4  5  1  0
  5  6  1  0
  2  7  1  0
  7  8  2  0
  8  9  1  0
  9 10  1  0
 10 11  2  0
 11 12  1  0
 12 13  2  0
 13 14  1  0
 13 15  1  0
 15 16  2  0
 16 17  1  0
  9 18  2  0
 18 19  1  0
 19  7  1  0
 16 10  1  0
  3 20  1  0
  4 21  1  0
  4 22  1  0
  5 23  1  0
  5 24  1  0
  6 25  1  0
  8 26  1  0
 11 27  1  0
 12 28  1  0
 15 29  1  0
 19 30  1  0
M  END
$$$$
