
     RDKit          3D

 33 35  0  0  0  0  0  0  0  0999 V2000
   -5.0735    1.3778   -1.3209 N   0  0  0  0  0  0  0  0  0  0  0  0
   -4.3717    0.5037   -0.4446 C   0  0  0  0  0  0  0  0  0  0  0  0
   -3.0787    0.2203   -0.6539 N   0  0  0  0  0  0  0  0  0  0  0  0
   -2.3831   -0.6016    0.1533 C   0  0  0  0  0  0  0  0  0  0  0  0
   -0.9399   -0.8603   -0.1594 C   0  0  0  0  0  0  0  0  0  0  0  0
   -0.1377    0.1905    0.5688 C   0  0  0  0  0  0  0  0  0  0  0  0
    1.3125    0.0888    0.3741 C   0  0  0  0  0  0  0  0  0  0  0  0
    2.0045    0.7262   -0.6443 C   0  0  0  0  0  0  0  0  0  0  0  0
    3.3584    0.6367   -0.8335 C   0  0  0  0  0  0  0  0  0  0  0  0
    4.0407   -0.1497    0.0711 C   0  0  0  0  0  0  0  0  0  0  0  0
    5.3755   -0.0865   -0.3198 C   0  0  0  0  0  0  0  0  0  0  0  0
    5.4749    0.7139   -1.4223 C   0  0  0  0  0  0  0  0  0  0  0  0
    4.2196    1.1495   -1.7225 N   0  0  0  0  0  0  0  0  0  0  0  0
    3.4258   -0.8276    1.1263 C   0  0  0  0  0  0  0  0  0  0  0  0
    2.0526   -0.6870    1.2511 C   0  0  0  0  0  0  0  0  0  0  0  0
   -3.0340   -1.1781    1.2471 C   0  0  0  0  0  0  0  0  0  0  0  0
   -4.3654   -0.8992    1.4804 C   0  0  0  0  0  0  0  0  0  0  0  0
   -4.9458   -1.4210    2.4663 O   0  0  0  0  0  0  0  0  0  0  0  0
   -4.9925   -0.0630    0.6217 N   0  0  0  0  0  0  0  0  0  0  0  0
   -5.5103    0.9027   -2.1502 H   0  0  0  0  0  0  0  0  0  0  0  0
   -5.2648    2.3928   -1.3435 H   0  0  0  0  0  0  0  0  0  0  0  0
   -0.8090   -0.7415   -1.2597 H   0  0  0  0  0  0  0  0  0  0  0  0
   -0.6262   -1.8580    0.2013 H   0  0  0  0  0  0  0  0  0  0  0  0
   -0.4743    1.1771    0.1422 H   0  0  0  0  0  0  0  0  0  0  0  0
   -0.3357    0.1128    1.6515 H   0  0  0  0  0  0  0  0  0  0  0  0
    1.3769    1.3202   -1.3018 H   0  0  0  0  0  0  0  0  0  0  0  0
    6.2125   -0.5812    0.1559 H   0  0  0  0  0  0  0  0  0  0  0  0
    6.3278    1.0017   -2.0057 H   0  0  0  0  0  0  0  0  0  0  0  0
    3.9535    1.7839   -2.5173 H   0  0  0  0  0  0  0  0  0  0  0  0
    4.0496   -1.4187    1.7809 H   0  0  0  0  0  0  0  0  0  0  0  0
    1.6248   -1.2336    2.0864 H   0  0  0  0  0  0  0  0  0  0  0  0
   -2.4577   -1.8408    1.8909 H   0  0  0  0  0  0  0  0  0  0  0  0
   -6.0095    0.1492    0.8010 H   0  0  0  0  0  0  0  0  0  0  0  0
  1  2  1  0
  2  3  2  0
  3  4  1  0
  4  5  1  0
  5  6  1  0
  6  7  1  0
  7  8  2  0
  8  9  1  0
  9 10  2  0
 10 11  1  0
 11 12  2  0
 12 13  1  0
 10 14  1  0
 14 15  2  0
  4 16  2  0
 16 17  1  0
 17 18  2  0
 17 19  1  0
 19  2  1  0
 15  7  1  0
 13  9  1  0
  1 20  1  0
  1 21  1  0
  5 22  1  0
  5 23  1  0
  6 24  1  0
  6 25  1  0
  8 26  1  0
 11 27  1  0
 12 28  1  0
 13 29  1  0
 14 30  1  0
 15 31  1  0
 16 32  1  0
 19 33  1  0
M  END
$$$$
