@<TRIPOS>MOLECULE
*****
 33 35 0 0 0
SMALL
GASTEIGER

@<TRIPOS>ATOM
      1 N          -5.0735    1.3778   -1.3209 N.pl3   1  UNL1       -0.3289
      2 C          -4.3717    0.5037   -0.4446 C.ar    1  UNL1        0.1932
      3 N          -3.0787    0.2203   -0.6539 N.ar    1  UNL1       -0.2210
      4 C          -2.3831   -0.6016    0.1533 C.ar    1  UNL1        0.0503
      5 C          -0.9399   -0.8603   -0.1594 C.3     1  UNL1       -0.0061
      6 C          -0.1377    0.1905    0.5688 C.3     1  UNL1       -0.0222
      7 C           1.3125    0.0888    0.3741 C.ar    1  UNL1       -0.0450
      8 C           2.0045    0.7262   -0.6443 C.ar    1  UNL1       -0.0346
      9 C           3.3584    0.6367   -0.8335 C.ar    1  UNL1        0.0467
     10 C           4.0407   -0.1497    0.0711 C.ar    1  UNL1       -0.0003
     11 C           5.3755   -0.0865   -0.3198 C.ar    1  UNL1       -0.0367
     12 C           5.4749    0.7139   -1.4223 C.ar    1  UNL1        0.0027
     13 N           4.2196    1.1495   -1.7225 N.ar    1  UNL1       -0.3606
     14 C           3.4258   -0.8276    1.1263 C.ar    1  UNL1       -0.0523
     15 C           2.0526   -0.6870    1.2511 C.ar    1  UNL1       -0.0579
     16 C          -3.0340   -1.1781    1.2471 C.ar    1  UNL1        0.0242
     17 C          -4.3654   -0.8992    1.4804 C.ar    1  UNL1        0.2529
     18 O          -4.9458   -1.4210    2.4663 O.2     1  UNL1       -0.2678
     19 N          -4.9925   -0.0630    0.6217 N.ar    1  UNL1       -0.2953
     20 H          -5.5103    0.9027   -2.1502 H       1  UNL1        0.1451
     21 H          -5.2648    2.3928   -1.3435 H       1  UNL1        0.1451
     22 H          -0.8090   -0.7415   -1.2597 H       1  UNL1        0.0331
     23 H          -0.6262   -1.8580    0.2013 H       1  UNL1        0.0331
     24 H          -0.4743    1.1771    0.1422 H       1  UNL1        0.0317
     25 H          -0.3357    0.1128    1.6515 H       1  UNL1        0.0317
     26 H           1.3769    1.3202   -1.3018 H       1  UNL1        0.0641
     27 H           6.2125   -0.5812    0.1559 H       1  UNL1        0.0638
     28 H           6.3278    1.0017   -2.0057 H       1  UNL1        0.0807
     29 H           3.9535    1.7839   -2.5173 H       1  UNL1        0.1653
     30 H           4.0496   -1.4187    1.7809 H       1  UNL1        0.0624
     31 H           1.6248   -1.2336    2.0864 H       1  UNL1        0.0620
     32 H          -2.4577   -1.8408    1.8909 H       1  UNL1        0.0690
     33 H          -6.0095    0.1492    0.8010 H       1  UNL1        0.1716
@<TRIPOS>BOND
     1     1     2    1
     2     2     3   ar
     3     3     4   ar
     4     4     5    1
     5     5     6    1
     6     6     7    1
     7     7     8   ar
     8     8     9   ar
     9     9    10   ar
    10    10    11   ar
    11    11    12   ar
    12    12    13   ar
    13    10    14   ar
    14    14    15   ar
    15     4    16   ar
    16    16    17   ar
    17    17    18    2
    18    17    19   ar
    19    19     2   ar
    20    15     7   ar
    21    13     9   ar
    22     1    20    1
    23     1    21    1
    24     5    22    1
    25     5    23    1
    26     6    24    1
    27     6    25    1
    28     8    26    1
    29    11    27    1
    30    12    28    1
    31    13    29    1
    32    14    30    1
    33    15    31    1
    34    16    32    1
    35    19    33    1
