
     RDKit          3D

 72 77  0  0  0  0  0  0  0  0999 V2000
   -0.5460    6.6904   -1.2102 C   0  0  0  0  0  0  0  0  0  0  0  0
   -0.7248    6.5566    0.1499 N   0  0  0  0  0  0  0  0  0  0  0  0
   -1.8218    5.7349    0.6887 C   0  0  1  0  0  0  0  0  0  0  0  0
   -3.1174    6.2932    0.2972 C   0  0  0  0  0  0  0  0  0  0  0  0
   -1.6122    4.2655    0.5005 C   0  0  0  0  0  0  0  0  0  0  0  0
   -0.4843    3.8835    0.2541 O   0  0  0  0  0  0  0  0  0  0  0  0
   -2.7497    3.3772    0.6109 N   0  0  0  0  0  0  0  0  0  0  0  0
   -2.4733    1.9626    0.5429 C   0  0  0  0  0  0  0  0  0  0  0  0
   -3.4652    1.0452    0.4648 C   0  0  0  0  0  0  0  0  0  0  0  0
   -3.0183   -0.2898    0.4143 C   0  0  0  0  0  0  0  0  0  0  0  0
   -1.7987   -0.7363    0.4437 C   0  0  0  0  0  0  0  0  0  0  0  0
   -1.4170   -2.1229    0.7751 C   0  0  0  0  0  0  0  0  0  0  0  0
   -2.2082   -2.7283    1.8202 C   0  0  0  0  0  0  0  0  0  0  0  0
   -3.6630   -2.7074    1.8394 C   0  0  0  0  0  0  0  0  0  0  0  0
   -4.5320   -1.9437    2.5568 C   0  0  0  0  0  0  0  0  0  0  0  0
   -5.8744   -2.0722    2.4164 C   0  0  0  0  0  0  0  0  0  0  0  0
   -6.4288   -3.0059    1.5205 C   0  0  0  0  0  0  0  0  0  0  0  0
   -5.5818   -3.7711    0.8010 N   0  0  0  0  0  0  0  0  0  0  0  0
   -4.2862   -3.6351    0.9486 C   0  0  0  0  0  0  0  0  0  0  0  0
   -3.4952   -4.4529    0.1673 O   0  0  0  0  0  0  0  0  0  0  0  0
   -4.0328   -5.4324   -0.7335 C   0  0  0  0  0  0  0  0  0  0  0  0
   -1.3940   -3.6021    2.4075 N   0  0  0  0  0  0  0  0  0  0  0  0
   -0.1857   -3.6615    1.8660 C   0  0  0  0  0  0  0  0  0  0  0  0
    0.9846   -4.3795    1.9781 C   0  0  0  0  0  0  0  0  0  0  0  0
    2.0606   -4.3106    1.1827 C   0  0  0  0  0  0  0  0  0  0  0  0
    1.9478   -3.3807    0.0581 C   0  0  0  0  0  0  0  0  0  0  0  0
    0.7884   -2.6456   -0.0495 C   0  0  0  0  0  0  0  0  0  0  0  0
   -0.2451   -2.6964    0.7648 N   0  0  0  0  0  0  0  0  0  0  0  0
   -0.7081    0.3340    0.4996 C   0  0  0  0  0  0  0  0  0  0  0  0
    0.4296    0.1149    0.1573 C   0  0  0  0  0  0  0  0  0  0  0  0
    1.7526   -0.1392   -0.2625 C   0  0  0  0  0  0  0  0  0  0  0  0
    2.9809   -0.3622   -0.6717 C   0  0  0  0  0  0  0  0  0  0  0  0
    3.3460   -1.0357   -1.8200 C   0  0  0  0  0  0  0  0  0  0  0  0
    4.5001   -1.0979   -2.5060 C   0  0  0  0  0  0  0  0  0  0  0  0
    5.5207   -0.2893   -1.8834 C   0  0  0  0  0  0  0  0  0  0  0  0
    6.7441   -0.2762   -2.5155 C   0  0  0  0  0  0  0  0  0  0  0  0
    6.9968   -0.9365   -3.8208 C   0  0  0  0  0  0  0  0  0  0  0  0
    7.7095    0.4344   -1.9569 N   0  0  0  0  0  0  0  0  0  0  0  0
    7.4693    1.1295   -0.7960 C   0  0  0  0  0  0  0  0  0  0  0  0
    6.2797    1.1458   -0.1465 C   0  0  0  0  0  0  0  0  0  0  0  0
    5.2336    0.3631   -0.7664 C   0  0  0  0  0  0  0  0  0  0  0  0
    4.0360    0.4211   -0.0746 C   0  0  0  0  0  0  0  0  0  0  0  0
   -1.1993    1.6194    0.5509 N   0  0  0  0  0  0  0  0  0  0  0  0
   -0.9993    7.6834   -1.5810 H   0  0  0  0  0  0  0  0  0  0  0  0
   -0.9045    5.8192   -1.8533 H   0  0  0  0  0  0  0  0  0  0  0  0
    0.5964    6.7725   -1.3549 H   0  0  0  0  0  0  0  0  0  0  0  0
    0.1240    6.6774    0.7842 H   0  0  0  0  0  0  0  0  0  0  0  0
   -1.6615    5.9206    1.8618 H   0  0  0  0  0  0  0  0  0  0  0  0
   -3.5775    5.9343   -0.6619 H   0  0  0  0  0  0  0  0  0  0  0  0
   -3.8216    6.3234    1.1689 H   0  0  0  0  0  0  0  0  0  0  0  0
   -2.9003    7.4786    0.1057 H   0  0  0  0  0  0  0  0  0  0  0  0
   -3.6534    3.7421    0.6994 H   0  0  0  0  0  0  0  0  0  0  0  0
   -4.5108    1.2857    0.3741 H   0  0  0  0  0  0  0  0  0  0  0  0
   -3.8884   -1.0060    0.2444 H   0  0  0  0  0  0  0  0  0  0  0  0
   -4.1205   -1.2266    3.2632 H   0  0  0  0  0  0  0  0  0  0  0  0
   -6.5496   -1.4563    2.9669 H   0  0  0  0  0  0  0  0  0  0  0  0
   -7.5100   -3.0684    1.4048 H   0  0  0  0  0  0  0  0  0  0  0  0
   -3.1904   -5.9981   -1.1997 H   0  0  0  0  0  0  0  0  0  0  0  0
   -4.5343   -6.2224   -0.1038 H   0  0  0  0  0  0  0  0  0  0  0  0
   -4.6647   -4.9800   -1.4696 H   0  0  0  0  0  0  0  0  0  0  0  0
    1.0399   -5.0810    2.8229 H   0  0  0  0  0  0  0  0  0  0  0  0
    2.9801   -4.7829    1.3312 H   0  0  0  0  0  0  0  0  0  0  0  0
    2.7934   -3.3856   -0.5826 H   0  0  0  0  0  0  0  0  0  0  0  0
    0.5942   -2.0922   -1.0090 H   0  0  0  0  0  0  0  0  0  0  0  0
    2.5118   -1.6702   -2.2063 H   0  0  0  0  0  0  0  0  0  0  0  0
    4.6547   -1.6877   -3.3245 H   0  0  0  0  0  0  0  0  0  0  0  0
    7.4773   -1.8739   -3.8245 H   0  0  0  0  0  0  0  0  0  0  0  0
    6.0641   -0.8066   -4.4564 H   0  0  0  0  0  0  0  0  0  0  0  0
    7.7486   -0.2139   -4.3647 H   0  0  0  0  0  0  0  0  0  0  0  0
    8.3178    1.6481   -0.4108 H   0  0  0  0  0  0  0  0  0  0  0  0
    6.0534    1.6539    0.7506 H   0  0  0  0  0  0  0  0  0  0  0  0
    3.8144    0.9527    0.7987 H   0  0  0  0  0  0  0  0  0  0  0  0
  1  2  1  0
  2  3  1  0
  3  4  1  0
  3  5  1  0
  5  6  2  0
  5  7  1  0
  7  8  1  0
  8  9  2  0
  9 10  1  0
 10 11  2  0
 11 12  1  0
 12 13  2  0
 13 14  1  0
 14 15  2  0
 15 16  1  0
 16 17  2  0
 17 18  1  0
 18 19  2  0
 19 20  1  0
 20 21  1  0
 13 22  1  0
 22 23  2  0
 23 24  1  0
 24 25  2  0
 25 26  1  0
 26 27  2  0
 27 28  1  0
 11 29  1  0
 29 30  1  0
 30 31  3  0
 31 32  1  0
 32 33  2  0
 33 34  1  0
 34 35  2  0
 35 36  1  0
 36 37  1  0
 36 38  2  0
 38 39  1  0
 39 40  2  0
 40 41  1  0
 41 42  2  0
 29 43  2  0
 43  8  1  0
 28 12  1  0
 42 32  1  0
 19 14  1  0
 28 23  1  0
 41 35  1  0
  1 44  1  0
  1 45  1  0
  1 46  1  0
  2 47  1  0
  3 48  1  1
  4 49  1  0
  4 50  1  0
  4 51  1  0
  7 52  1  0
  9 53  1  0
 10 54  1  0
 15 55  1  0
 16 56  1  0
 17 57  1  0
 21 58  1  0
 21 59  1  0
 21 60  1  0
 24 61  1  0
 25 62  1  0
 26 63  1  0
 27 64  1  0
 33 65  1  0
 34 66  1  0
 37 67  1  0
 37 68  1  0
 37 69  1  0
 39 70  1  0
 40 71  1  0
 42 72  1  0
M  END
$$$$
