@<TRIPOS>MOLECULE
*****
 72 77 0 0 0
SMALL
GASTEIGER

@<TRIPOS>ATOM
      1 C          -0.5460    6.6904   -1.2102 C.3     1  UNL1       -0.0151
      2 N          -0.7248    6.5566    0.1499 N.3     1  UNL1       -0.3089
      3 C          -1.8218    5.7349    0.6887 C.3     1  UNL1        0.0820
      4 C          -3.1174    6.2932    0.2972 C.3     1  UNL1       -0.0411
      5 C          -1.6122    4.2655    0.5005 C.2     1  UNL1        0.2350
      6 O          -0.4843    3.8835    0.2541 O.2     1  UNL1       -0.2737
      7 N          -2.7497    3.3772    0.6109 N.am    1  UNL1       -0.2691
      8 C          -2.4733    1.9626    0.5429 C.ar    1  UNL1        0.1263
      9 C          -3.4652    1.0452    0.4648 C.ar    1  UNL1       -0.0208
     10 C          -3.0183   -0.2898    0.4143 C.ar    1  UNL1       -0.0466
     11 C          -1.7987   -0.7363    0.4437 C.ar    1  UNL1        0.0349
     12 C          -1.4170   -2.1229    0.7751 C.ar    1  UNL1        0.0838
     13 C          -2.2082   -2.7283    1.8202 C.ar    1  UNL1        0.1028
     14 C          -3.6630   -2.7074    1.8394 C.ar    1  UNL1        0.0639
     15 C          -4.5320   -1.9437    2.5568 C.ar    1  UNL1       -0.0460
     16 C          -5.8744   -2.0722    2.4164 C.ar    1  UNL1       -0.0427
     17 C          -6.4288   -3.0059    1.5205 C.ar    1  UNL1        0.0314
     18 N          -5.5818   -3.7711    0.8010 N.ar    1  UNL1       -0.2208
     19 C          -4.2862   -3.6351    0.9486 C.ar    1  UNL1        0.2239
     20 O          -3.4952   -4.4529    0.1673 O.3     1  UNL1       -0.4792
     21 C          -4.0328   -5.4324   -0.7335 C.3     1  UNL1        0.0804
     22 N          -1.3940   -3.6021    2.4075 N.ar    1  UNL1       -0.2270
     23 C          -0.1857   -3.6615    1.8660 C.ar    1  UNL1        0.1387
     24 C           0.9846   -4.3795    1.9781 C.ar    1  UNL1       -0.0188
     25 C           2.0606   -4.3106    1.1827 C.ar    1  UNL1       -0.0569
     26 C           1.9478   -3.3807    0.0581 C.ar    1  UNL1       -0.0450
     27 C           0.7884   -2.6456   -0.0495 C.ar    1  UNL1        0.0118
     28 N          -0.2451   -2.6964    0.7648 N.ar    1  UNL1       -0.2986
     29 C          -0.7081    0.3340    0.4996 C.ar    1  UNL1        0.1250
     30 C           0.4296    0.1149    0.1573 C.1     1  UNL1       -0.0404
     31 C           1.7526   -0.1392   -0.2625 C.1     1  UNL1       -0.0595
     32 C           2.9809   -0.3622   -0.6717 C.ar    1  UNL1        0.0259
     33 C           3.3460   -1.0357   -1.8200 C.ar    1  UNL1       -0.0457
     34 C           4.5001   -1.0979   -2.5060 C.ar    1  UNL1       -0.0512
     35 C           5.5207   -0.2893   -1.8834 C.ar    1  UNL1        0.0032
     36 C           6.7441   -0.2762   -2.5155 C.ar    1  UNL1        0.0459
     37 C           6.9968   -0.9365   -3.8208 C.3     1  UNL1       -0.0218
     38 N           7.7095    0.4344   -1.9569 N.ar    1  UNL1       -0.2595
     39 C           7.4693    1.1295   -0.7960 C.ar    1  UNL1        0.0285
     40 C           6.2797    1.1458   -0.1465 C.ar    1  UNL1       -0.0358
     41 C           5.2336    0.3631   -0.7664 C.ar    1  UNL1       -0.0136
     42 C           4.0360    0.4211   -0.0746 C.ar    1  UNL1       -0.0385
     43 N          -1.1993    1.6194    0.5509 N.ar    1  UNL1       -0.2229
     44 H          -0.9993    7.6834   -1.5810 H       1  UNL1        0.0388
     45 H          -0.9045    5.8192   -1.8533 H       1  UNL1        0.0388
     46 H           0.5964    6.7725   -1.3549 H       1  UNL1        0.0388
     47 H           0.1240    6.6774    0.7842 H       1  UNL1        0.1223
     48 H          -1.6615    5.9206    1.8618 H       1  UNL1        0.0554
     49 H          -3.5775    5.9343   -0.6619 H       1  UNL1        0.0249
     50 H          -3.8216    6.3234    1.1689 H       1  UNL1        0.0249
     51 H          -2.9003    7.4786    0.1057 H       1  UNL1        0.0249
     52 H          -3.6534    3.7421    0.6994 H       1  UNL1        0.1563
     53 H          -4.5108    1.2857    0.3741 H       1  UNL1        0.0652
     54 H          -3.8884   -1.0060    0.2444 H       1  UNL1        0.0626
     55 H          -4.1205   -1.2266    3.2632 H       1  UNL1        0.0626
     56 H          -6.5496   -1.4563    2.9669 H       1  UNL1        0.0633
     57 H          -7.5100   -3.0684    1.4048 H       1  UNL1        0.0831
     58 H          -3.1904   -5.9981   -1.1997 H       1  UNL1        0.0660
     59 H          -4.5343   -6.2224   -0.1038 H       1  UNL1        0.0660
     60 H          -4.6647   -4.9800   -1.4696 H       1  UNL1        0.0660
     61 H           1.0399   -5.0810    2.8229 H       1  UNL1        0.0654
     62 H           2.9801   -4.7829    1.3312 H       1  UNL1        0.0619
     63 H           2.7934   -3.3856   -0.5826 H       1  UNL1        0.0632
     64 H           0.5942   -2.0922   -1.0090 H       1  UNL1        0.0813
     65 H           2.5118   -1.6702   -2.2063 H       1  UNL1        0.0630
     66 H           4.6547   -1.6877   -3.3245 H       1  UNL1        0.0625
     67 H           7.4773   -1.8739   -3.8245 H       1  UNL1        0.0293
     68 H           6.0641   -0.8066   -4.4564 H       1  UNL1        0.0293
     69 H           7.7486   -0.2139   -4.3647 H       1  UNL1        0.0293
     70 H           8.3178    1.6481   -0.4108 H       1  UNL1        0.0830
     71 H           6.0534    1.6539    0.7506 H       1  UNL1        0.0639
     72 H           3.8144    0.9527    0.7987 H       1  UNL1        0.0636
@<TRIPOS>BOND
     1     1     2    1
     2     2     3    1
     3     3     4    1
     4     3     5    1
     5     5     6    2
     6     5     7   am
     7     7     8    1
     8     8     9   ar
     9     9    10   ar
    10    10    11   ar
    11    11    12    1
    12    12    13   ar
    13    13    14    1
    14    14    15   ar
    15    15    16   ar
    16    16    17   ar
    17    17    18   ar
    18    18    19   ar
    19    19    20    1
    20    20    21    1
    21    13    22   ar
    22    22    23   ar
    23    23    24   ar
    24    24    25   ar
    25    25    26   ar
    26    26    27   ar
    27    27    28   ar
    28    11    29   ar
    29    29    30    1
    30    30    31    3
    31    31    32    1
    32    32    33   ar
    33    33    34   ar
    34    34    35   ar
    35    35    36   ar
    36    36    37    1
    37    36    38   ar
    38    38    39   ar
    39    39    40   ar
    40    40    41   ar
    41    41    42   ar
    42    29    43   ar
    43    43     8   ar
    44    28    12   ar
    45    42    32   ar
    46    19    14   ar
    47    28    23   ar
    48    41    35   ar
    49     1    44    1
    50     1    45    1
    51     1    46    1
    52     2    47    1
    53     3    48    1
    54     4    49    1
    55     4    50    1
    56     4    51    1
    57     7    52    1
    58     9    53    1
    59    10    54    1
    60    15    55    1
    61    16    56    1
    62    17    57    1
    63    21    58    1
    64    21    59    1
    65    21    60    1
    66    24    61    1
    67    25    62    1
    68    26    63    1
    69    27    64    1
    70    33    65    1
    71    34    66    1
    72    37    67    1
    73    37    68    1
    74    37    69    1
    75    39    70    1
    76    40    71    1
    77    42    72    1
