@<TRIPOS>MOLECULE
*****
 56 59 0 0 0
SMALL
GASTEIGER

@<TRIPOS>ATOM
      1 C          -4.2587    0.2606   -0.3269 C.3     1  UNL1       -0.0226
      2 C          -5.4176   -0.6113    0.0215 C.3     1  UNL1        0.0381
      3 C          -5.3331   -1.8934   -0.6578 C.1     1  UNL1        0.0628
      4 N          -5.2800   -2.9215   -1.1865 N.1     1  UNL1       -0.1966
      5 C          -4.4323    1.5839    0.4318 C.3     1  UNL1       -0.0485
      6 C          -3.0372    1.9359    0.9505 C.3     1  UNL1       -0.0491
      7 C          -2.1757    1.1135    0.0748 C.3     1  UNL1       -0.0319
      8 C          -0.7444    0.9970    0.4691 C.3     1  UNL1       -0.0306
      9 C          -0.1502    2.3607    0.5868 C.3     1  UNL1       -0.0454
     10 C           1.3450    2.4044    0.5862 C.3     1  UNL1       -0.0270
     11 C           1.9970    1.1670    0.1184 C.ar    1  UNL1       -0.0401
     12 C           3.3732    1.1718    0.2923 C.ar    1  UNL1       -0.0099
     13 C           4.1482    0.0937   -0.0895 C.ar    1  UNL1        0.1994
     14 O           5.5242    0.0973    0.0839 O.3     1  UNL1       -0.3300
     15 S           6.1828   -0.4954    1.5284 S.O2    1  UNL1        0.1893
     16 N           7.2318    0.6768    2.2524 N.3     1  UNL1       -0.1739
     17 O           5.1008   -0.8540    2.4869 O.2     1  UNL1       -0.1191
     18 O           7.0624   -1.6790    1.1906 O.2     1  UNL1       -0.1191
     19 C           3.5234   -1.0170   -0.6604 C.ar    1  UNL1        0.1647
     20 O           4.2986   -2.1020   -1.0452 O.3     1  UNL1       -0.4913
     21 C           3.6586   -3.2206   -1.6216 C.3     1  UNL1        0.0790
     22 C           2.1528   -0.9671   -0.8094 C.ar    1  UNL1       -0.0125
     23 C           1.3592    0.0795   -0.4439 C.ar    1  UNL1       -0.0371
     24 C          -0.1014    0.1344   -0.6018 C.3     1  UNL1       -0.0124
     25 C          -0.7567   -1.2216   -0.5190 C.3     1  UNL1       -0.0454
     26 C          -2.2146   -1.0838   -0.8927 C.3     1  UNL1       -0.0465
     27 C          -2.9170   -0.2135    0.0937 C.3     1  UNL1       -0.0252
     28 C          -2.9810   -0.8037    1.4759 C.3     1  UNL1       -0.0590
     29 H          -4.2632    0.4150   -1.4072 H       1  UNL1        0.0316
     30 H          -5.5906   -0.7575    1.1076 H       1  UNL1        0.0421
     31 H          -6.3299   -0.0505   -0.3188 H       1  UNL1        0.0421
     32 H          -5.1426    1.4817    1.2691 H       1  UNL1        0.0268
     33 H          -4.7219    2.3368   -0.3140 H       1  UNL1        0.0268
     34 H          -2.8484    3.0257    0.8632 H       1  UNL1        0.0268
     35 H          -2.9741    1.5585    1.9780 H       1  UNL1        0.0268
     36 H          -2.1980    1.4420   -0.9855 H       1  UNL1        0.0309
     37 H          -0.5475    0.4745    1.4222 H       1  UNL1        0.0310
     38 H          -0.4821    2.7548    1.5913 H       1  UNL1        0.0271
     39 H          -0.6161    3.0505   -0.1431 H       1  UNL1        0.0271
     40 H           1.6324    3.2215   -0.1351 H       1  UNL1        0.0313
     41 H           1.7768    2.7103    1.5598 H       1  UNL1        0.0313
     42 H           3.9370    2.0076    0.7337 H       1  UNL1        0.0659
     43 H           6.7525    1.1746    3.0185 H       1  UNL1        0.1472
     44 H           7.6286    1.3373    1.5412 H       1  UNL1        0.1472
     45 H           3.0841   -3.7756   -0.8360 H       1  UNL1        0.0660
     46 H           3.0300   -2.9055   -2.4627 H       1  UNL1        0.0660
     47 H           4.4703   -3.8909   -1.9864 H       1  UNL1        0.0660
     48 H           1.7015   -1.8326   -1.2498 H       1  UNL1        0.0658
     49 H          -0.3338    0.5927   -1.5711 H       1  UNL1        0.0352
     50 H          -0.3333   -1.9749   -1.1999 H       1  UNL1        0.0271
     51 H          -0.7274   -1.6265    0.5138 H       1  UNL1        0.0271
     52 H          -2.3494   -0.6526   -1.9010 H       1  UNL1        0.0271
     53 H          -2.6128   -2.1080   -0.9361 H       1  UNL1        0.0271
     54 H          -3.1959   -1.8904    1.3522 H       1  UNL1        0.0235
     55 H          -2.0765   -0.7083    2.0734 H       1  UNL1        0.0235
     56 H          -3.8277   -0.4023    2.0697 H       1  UNL1        0.0235
@<TRIPOS>BOND
     1     1     2    1
     2     2     3    1
     3     3     4    3
     4     1     5    1
     5     5     6    1
     6     6     7    1
     7     7     8    1
     8     8     9    1
     9     9    10    1
    10    10    11    1
    11    11    12   ar
    12    12    13   ar
    13    13    14    1
    14    14    15    1
    15    15    16    1
    16    15    17    2
    17    15    18    2
    18    13    19   ar
    19    19    20    1
    20    20    21    1
    21    19    22   ar
    22    22    23   ar
    23    23    24    1
    24    24    25    1
    25    25    26    1
    26    26    27    1
    27    27    28    1
    28    27     1    1
    29    27     7    1
    30    24     8    1
    31    23    11   ar
    32     1    29    1
    33     2    30    1
    34     2    31    1
    35     5    32    1
    36     5    33    1
    37     6    34    1
    38     6    35    1
    39     7    36    1
    40     8    37    1
    41     9    38    1
    42     9    39    1
    43    10    40    1
    44    10    41    1
    45    12    42    1
    46    16    43    1
    47    16    44    1
    48    21    45    1
    49    21    46    1
    50    21    47    1
    51    22    48    1
    52    24    49    1
    53    25    50    1
    54    25    51    1
    55    26    52    1
    56    26    53    1
    57    28    54    1
    58    28    55    1
    59    28    56    1
