
     RDKit          3D

 56 59  0  0  0  0  0  0  0  0999 V2000
   -4.2587    0.2606   -0.3269 C   0  0  1  0  0  0  0  0  0  0  0  0
   -5.4176   -0.6113    0.0215 C   0  0  0  0  0  0  0  0  0  0  0  0
   -5.3331   -1.8934   -0.6578 C   0  0  0  0  0  0  0  0  0  0  0  0
   -5.2800   -2.9215   -1.1865 N   0  0  0  0  0  0  0  0  0  0  0  0
   -4.4323    1.5839    0.4318 C   0  0  0  0  0  0  0  0  0  0  0  0
   -3.0372    1.9359    0.9505 C   0  0  0  0  0  0  0  0  0  0  0  0
   -2.1757    1.1135    0.0748 C   0  0  1  0  0  0  0  0  0  0  0  0
   -0.7444    0.9970    0.4691 C   0  0  2  0  0  0  0  0  0  0  0  0
   -0.1502    2.3607    0.5868 C   0  0  0  0  0  0  0  0  0  0  0  0
    1.3450    2.4044    0.5862 C   0  0  0  0  0  0  0  0  0  0  0  0
    1.9970    1.1670    0.1184 C   0  0  0  0  0  0  0  0  0  0  0  0
    3.3732    1.1718    0.2923 C   0  0  0  0  0  0  0  0  0  0  0  0
    4.1482    0.0937   -0.0895 C   0  0  0  0  0  0  0  0  0  0  0  0
    5.5242    0.0973    0.0839 O   0  0  0  0  0  0  0  0  0  0  0  0
    6.1828   -0.4954    1.5284 S   0  0  0  0  0  0  0  0  0  0  0  0
    7.2318    0.6768    2.2524 N   0  0  0  0  0  0  0  0  0  0  0  0
    5.1008   -0.8540    2.4869 O   0  0  0  0  0  0  0  0  0  0  0  0
    7.0624   -1.6790    1.1906 O   0  0  0  0  0  0  0  0  0  0  0  0
    3.5234   -1.0170   -0.6604 C   0  0  0  0  0  0  0  0  0  0  0  0
    4.2986   -2.1020   -1.0452 O   0  0  0  0  0  0  0  0  0  0  0  0
    3.6586   -3.2206   -1.6216 C   0  0  0  0  0  0  0  0  0  0  0  0
    2.1528   -0.9671   -0.8094 C   0  0  0  0  0  0  0  0  0  0  0  0
    1.3592    0.0795   -0.4439 C   0  0  0  0  0  0  0  0  0  0  0  0
   -0.1014    0.1344   -0.6018 C   0  0  1  0  0  0  0  0  0  0  0  0
   -0.7567   -1.2216   -0.5190 C   0  0  0  0  0  0  0  0  0  0  0  0
   -2.2146   -1.0838   -0.8927 C   0  0  0  0  0  0  0  0  0  0  0  0
   -2.9170   -0.2135    0.0937 C   0  0  2  0  0  0  0  0  0  0  0  0
   -2.9810   -0.8037    1.4759 C   0  0  0  0  0  0  0  0  0  0  0  0
   -4.2632    0.4150   -1.4072 H   0  0  0  0  0  0  0  0  0  0  0  0
   -5.5906   -0.7575    1.1076 H   0  0  0  0  0  0  0  0  0  0  0  0
   -6.3299   -0.0505   -0.3188 H   0  0  0  0  0  0  0  0  0  0  0  0
   -5.1426    1.4817    1.2691 H   0  0  0  0  0  0  0  0  0  0  0  0
   -4.7219    2.3368   -0.3140 H   0  0  0  0  0  0  0  0  0  0  0  0
   -2.8484    3.0257    0.8632 H   0  0  0  0  0  0  0  0  0  0  0  0
   -2.9741    1.5585    1.9780 H   0  0  0  0  0  0  0  0  0  0  0  0
   -2.1980    1.4420   -0.9855 H   0  0  0  0  0  0  0  0  0  0  0  0
   -0.5475    0.4745    1.4222 H   0  0  0  0  0  0  0  0  0  0  0  0
   -0.4821    2.7548    1.5913 H   0  0  0  0  0  0  0  0  0  0  0  0
   -0.6161    3.0505   -0.1431 H   0  0  0  0  0  0  0  0  0  0  0  0
    1.6324    3.2215   -0.1351 H   0  0  0  0  0  0  0  0  0  0  0  0
    1.7768    2.7103    1.5598 H   0  0  0  0  0  0  0  0  0  0  0  0
    3.9370    2.0076    0.7337 H   0  0  0  0  0  0  0  0  0  0  0  0
    6.7525    1.1746    3.0185 H   0  0  0  0  0  0  0  0  0  0  0  0
    7.6286    1.3373    1.5412 H   0  0  0  0  0  0  0  0  0  0  0  0
    3.0841   -3.7756   -0.8360 H   0  0  0  0  0  0  0  0  0  0  0  0
    3.0300   -2.9055   -2.4627 H   0  0  0  0  0  0  0  0  0  0  0  0
    4.4703   -3.8909   -1.9864 H   0  0  0  0  0  0  0  0  0  0  0  0
    1.7015   -1.8326   -1.2498 H   0  0  0  0  0  0  0  0  0  0  0  0
   -0.3338    0.5927   -1.5711 H   0  0  0  0  0  0  0  0  0  0  0  0
   -0.3333   -1.9749   -1.1999 H   0  0  0  0  0  0  0  0  0  0  0  0
   -0.7274   -1.6265    0.5138 H   0  0  0  0  0  0  0  0  0  0  0  0
   -2.3494   -0.6526   -1.9010 H   0  0  0  0  0  0  0  0  0  0  0  0
   -2.6128   -2.1080   -0.9361 H   0  0  0  0  0  0  0  0  0  0  0  0
   -3.1959   -1.8904    1.3522 H   0  0  0  0  0  0  0  0  0  0  0  0
   -2.0765   -0.7083    2.0734 H   0  0  0  0  0  0  0  0  0  0  0  0
   -3.8277   -0.4023    2.0697 H   0  0  0  0  0  0  0  0  0  0  0  0
  1  2  1  0
  2  3  1  0
  3  4  3  0
  1  5  1  0
  5  6  1  0
  6  7  1  0
  7  8  1  0
  8  9  1  0
  9 10  1  0
 10 11  1  0
 11 12  2  0
 12 13  1  0
 13 14  1  0
 14 15  1  0
 15 16  1  0
 15 17  2  0
 15 18  2  0
 13 19  2  0
 19 20  1  0
 20 21  1  0
 19 22  1  0
 22 23  2  0
 23 24  1  0
 24 25  1  0
 25 26  1  0
 26 27  1  0
 27 28  1  1
 27  1  1  0
 27  7  1  0
 24  8  1  0
 23 11  1  0
  1 29  1  6
  2 30  1  0
  2 31  1  0
  5 32  1  0
  5 33  1  0
  6 34  1  0
  6 35  1  0
  7 36  1  6
  8 37  1  1
  9 38  1  0
  9 39  1  0
 10 40  1  0
 10 41  1  0
 12 42  1  0
 16 43  1  0
 16 44  1  0
 21 45  1  0
 21 46  1  0
 21 47  1  0
 22 48  1  0
 24 49  1  6
 25 50  1  0
 25 51  1  0
 26 52  1  0
 26 53  1  0
 28 54  1  0
 28 55  1  0
 28 56  1  0
M  END
$$$$
