@<TRIPOS>MOLECULE
*****
 57 60 0 0 0
SMALL
GASTEIGER

@<TRIPOS>ATOM
      1 C          -0.0323   -0.8333    0.8859 C.2     1  UNL1       -0.0464
      2 C           1.3597   -0.4727    0.6098 C.ar    1  UNL1       -0.0210
      3 C           2.3330   -1.4191    0.4436 C.ar    1  UNL1       -0.0107
      4 C           3.6644   -1.1467    0.2005 C.ar    1  UNL1        0.1444
      5 O           4.6521   -2.0983    0.0287 O.3     1  UNL1       -0.4930
      6 C           4.2929   -3.4806    0.1016 C.3     1  UNL1        0.0789
      7 C           4.0738    0.1760    0.1152 C.ar    1  UNL1        0.0892
      8 C           3.1054    1.1511    0.2802 C.ar    1  UNL1       -0.0337
      9 C           1.7908    0.8200    0.5194 C.ar    1  UNL1       -0.0524
     10 N           5.4324    0.5459   -0.1256 N.ar    1  UNL1       -0.3022
     11 C           6.3917   -0.1189   -0.7570 C.ar    1  UNL1        0.1008
     12 N           7.5381    0.6246   -0.7406 N.ar    1  UNL1       -0.2406
     13 C           7.2495    1.7643   -0.0789 C.ar    1  UNL1        0.0563
     14 C           8.2024    2.8705    0.1774 C.3     1  UNL1       -0.0209
     15 C           5.9206    1.7409    0.3216 C.ar    1  UNL1        0.0323
     16 C          -1.0395   -0.2939    0.1646 C.2     1  UNL1        0.0151
     17 C          -0.7837    0.6926   -0.9483 C.3     1  UNL1       -0.0213
     18 C          -1.8383    0.4705   -2.0289 C.3     1  UNL1       -0.0330
     19 C          -2.3808   -0.9303   -1.9041 C.3     1  UNL1        0.0159
     20 N          -3.2521   -0.9758   -0.7500 N.am    1  UNL1       -0.2910
     21 C          -2.4550   -0.6681    0.4253 C.2     1  UNL1        0.2431
     22 O          -2.7464   -0.6629    1.6518 O.2     1  UNL1       -0.2703
     23 C          -4.6178   -1.2327   -0.4172 C.3     1  UNL1        0.0486
     24 C          -4.8543   -2.3685    0.5183 C.3     1  UNL1       -0.0422
     25 C          -5.3896   -0.0226    0.0096 C.ar    1  UNL1       -0.0271
     26 C          -6.1138    0.0556    1.1799 C.ar    1  UNL1       -0.0541
     27 C          -6.8384    1.1783    1.5420 C.ar    1  UNL1       -0.0261
     28 C          -6.8614    2.2852    0.7228 C.ar    1  UNL1        0.1234
     29 F          -7.5599    3.4061    1.0390 F       1  UNL1       -0.2055
     30 C          -6.1486    2.2470   -0.4609 C.ar    1  UNL1       -0.0261
     31 C          -5.4378    1.1049   -0.7847 C.ar    1  UNL1       -0.0541
     32 H          -0.3121   -1.5423    1.6862 H       1  UNL1        0.0628
     33 H           2.0851   -2.4837    0.4943 H       1  UNL1        0.0661
     34 H           5.1527   -4.1336   -0.1208 H       1  UNL1        0.0660
     35 H           3.4699   -3.6331   -0.6584 H       1  UNL1        0.0660
     36 H           3.8488   -3.6497    1.1013 H       1  UNL1        0.0660
     37 H           3.4381    2.1958    0.2130 H       1  UNL1        0.0640
     38 H           1.1186    1.6531    0.6407 H       1  UNL1        0.0624
     39 H           6.3278   -1.0894   -1.2271 H       1  UNL1        0.1032
     40 H           8.2551    3.5450   -0.6886 H       1  UNL1        0.0293
     41 H           9.1711    2.4190    0.4768 H       1  UNL1        0.0293
     42 H           7.8166    3.4766    1.0149 H       1  UNL1        0.0293
     43 H           5.3671    2.5080    0.8772 H       1  UNL1        0.0831
     44 H           0.2381    0.4875   -1.3471 H       1  UNL1        0.0315
     45 H          -0.8800    1.7399   -0.6131 H       1  UNL1        0.0315
     46 H          -2.5955    1.2670   -1.8898 H       1  UNL1        0.0284
     47 H          -1.3491    0.5747   -3.0285 H       1  UNL1        0.0284
     48 H          -2.8937   -1.2704   -2.8272 H       1  UNL1        0.0465
     49 H          -1.4937   -1.5798   -1.7103 H       1  UNL1        0.0465
     50 H          -5.1168   -1.5015   -1.4060 H       1  UNL1        0.0548
     51 H          -5.9047   -2.7171    0.4839 H       1  UNL1        0.0251
     52 H          -4.2168   -3.2265    0.1897 H       1  UNL1        0.0251
     53 H          -4.5759   -2.1283    1.5798 H       1  UNL1        0.0251
     54 H          -6.1081   -0.8176    1.8466 H       1  UNL1        0.0622
     55 H          -7.4015    1.2042    2.4765 H       1  UNL1        0.0646
     56 H          -6.1671    3.1262   -1.1098 H       1  UNL1        0.0646
     57 H          -4.9311    1.1669   -1.7143 H       1  UNL1        0.0622
@<TRIPOS>BOND
     1     1     2    1
     2     2     3   ar
     3     3     4   ar
     4     4     5    1
     5     5     6    1
     6     4     7   ar
     7     7     8   ar
     8     8     9   ar
     9     7    10    1
    10    10    11   ar
    11    11    12   ar
    12    12    13   ar
    13    13    14    1
    14    13    15   ar
    15     1    16    2
    16    16    17    1
    17    17    18    1
    18    18    19    1
    19    19    20    1
    20    20    21   am
    21    21    22    2
    22    20    23    1
    23    23    24    1
    24    23    25    1
    25    25    26   ar
    26    26    27   ar
    27    27    28   ar
    28    28    29    1
    29    28    30   ar
    30    30    31   ar
    31     9     2   ar
    32    15    10   ar
    33    21    16    1
    34    31    25   ar
    35     1    32    1
    36     3    33    1
    37     6    34    1
    38     6    35    1
    39     6    36    1
    40     8    37    1
    41     9    38    1
    42    11    39    1
    43    14    40    1
    44    14    41    1
    45    14    42    1
    46    15    43    1
    47    17    44    1
    48    17    45    1
    49    18    46    1
    50    18    47    1
    51    19    48    1
    52    19    49    1
    53    23    50    1
    54    24    51    1
    55    24    52    1
    56    24    53    1
    57    26    54    1
    58    27    55    1
    59    30    56    1
    60    31    57    1
