@<TRIPOS>MOLECULE
*****
 38 39 0 0 0
SMALL
GASTEIGER

@<TRIPOS>ATOM
      1 C           3.4872   -1.2616   -0.5044 C.3     1  UNL1       -0.0130
      2 N           2.8201   -0.0321   -0.3756 N.3     1  UNL1       -0.3083
      3 C           2.9542    0.6794    0.8364 C.3     1  UNL1       -0.0130
      4 C           1.8629    0.3566   -1.3172 C.3     1  UNL1       -0.0008
      5 C           0.5876   -0.4478   -1.3403 C.3     1  UNL1       -0.0279
      6 C          -0.1122   -0.3733   -0.0144 C.3     1  UNL1        0.0275
      7 C          -1.3767   -1.1596   -0.0040 C.ar    1  UNL1       -0.0384
      8 C          -1.7340   -1.8836    1.1271 C.ar    1  UNL1       -0.0566
      9 C          -2.8916   -2.6439    1.2320 C.ar    1  UNL1       -0.0431
     10 C          -3.7240   -2.6687    0.1356 C.ar    1  UNL1        0.0410
     11 CL         -5.2026   -3.5871    0.1534 Cl      1  UNL1       -0.0835
     12 C          -3.4281   -1.9730   -1.0175 C.ar    1  UNL1       -0.0431
     13 C          -2.2726   -1.2442   -1.0547 C.ar    1  UNL1       -0.0566
     14 C          -0.3447    1.0272    0.4296 C.ar    1  UNL1        0.0487
     15 C          -0.3175    1.5632    1.6998 C.ar    1  UNL1       -0.0398
     16 C          -0.5635    2.9010    1.8851 C.ar    1  UNL1       -0.0586
     17 C          -0.8369    3.7013    0.7961 C.ar    1  UNL1       -0.0436
     18 C          -0.8638    3.1560   -0.4891 C.ar    1  UNL1        0.0279
     19 N          -0.6154    1.8322   -0.6257 N.ar    1  UNL1       -0.2593
     20 H           3.1979   -2.0277    0.2331 H       1  UNL1        0.0391
     21 H           3.4282   -1.6063   -1.5602 H       1  UNL1        0.0391
     22 H           4.5860   -1.0647   -0.3373 H       1  UNL1        0.0391
     23 H           2.7362    0.0770    1.7457 H       1  UNL1        0.0391
     24 H           2.4529    1.6463    0.8519 H       1  UNL1        0.0391
     25 H           4.0539    0.9291    0.9342 H       1  UNL1        0.0391
     26 H           2.3127    0.2284   -2.3451 H       1  UNL1        0.0427
     27 H           1.6547    1.4284   -1.2058 H       1  UNL1        0.0427
     28 H           0.7732   -1.5172   -1.5497 H       1  UNL1        0.0287
     29 H          -0.1096   -0.0852   -2.1129 H       1  UNL1        0.0287
     30 H           0.5568   -0.8342    0.7394 H       1  UNL1        0.0413
     31 H          -1.1001   -1.8873    2.0119 H       1  UNL1        0.0621
     32 H          -3.1135   -3.1875    2.1467 H       1  UNL1        0.0632
     33 H          -4.0825   -1.9862   -1.8935 H       1  UNL1        0.0632
     34 H          -2.0389   -0.6983   -1.9559 H       1  UNL1        0.0621
     35 H          -0.0929    0.8298    2.4519 H       1  UNL1        0.0636
     36 H          -0.5311    3.2734    2.8944 H       1  UNL1        0.0619
     37 H          -1.0326    4.7589    0.9338 H       1  UNL1        0.0633
     38 H          -1.0800    3.7815   -1.3673 H       1  UNL1        0.0829
@<TRIPOS>BOND
     1     1     2    1
     2     2     3    1
     3     2     4    1
     4     4     5    1
     5     5     6    1
     6     6     7    1
     7     7     8   ar
     8     8     9   ar
     9     9    10   ar
    10    10    11    1
    11    10    12   ar
    12    12    13   ar
    13     6    14    1
    14    14    15   ar
    15    15    16   ar
    16    16    17   ar
    17    17    18   ar
    18    18    19   ar
    19    13     7   ar
    20    19    14   ar
    21     1    20    1
    22     1    21    1
    23     1    22    1
    24     3    23    1
    25     3    24    1
    26     3    25    1
    27     4    26    1
    28     4    27    1
    29     5    28    1
    30     5    29    1
    31     6    30    1
    32     8    31    1
    33     9    32    1
    34    12    33    1
    35    13    34    1
    36    15    35    1
    37    16    36    1
    38    17    37    1
    39    18    38    1
