
     RDKit          3D

 20 19  0  0  0  0  0  0  0  0999 V2000
    3.4047    0.5943    0.2666 C   0  0  0  0  0  0  0  0  0  0  0  0
    2.6130   -0.9871    0.5381 S   0  0  0  0  0  0  0  0  0  0  0  0
    0.9516   -1.1088   -0.1327 C   0  0  0  0  0  0  0  0  0  0  0  0
   -0.0459   -0.2090    0.5446 C   0  0  0  0  0  0  0  0  0  0  0  0
   -1.3849   -0.4256   -0.1196 C   0  0  2  0  0  0  0  0  0  0  0  0
   -1.3665   -0.1200   -1.5186 N   0  0  0  0  0  0  0  0  0  0  0  0
   -2.4541    0.4190    0.5071 C   0  0  0  0  0  0  0  0  0  0  0  0
   -3.3292    1.3476   -0.0413 O   0  0  0  0  0  0  0  0  0  0  0  0
   -2.7886    0.4587    1.7133 O   0  0  0  0  0  0  0  0  0  0  0  0
    4.2683    0.6605    0.9909 H   0  0  0  0  0  0  0  0  0  0  0  0
    2.7820    1.4793    0.4747 H   0  0  0  0  0  0  0  0  0  0  0  0
    3.8581    0.6855   -0.7377 H   0  0  0  0  0  0  0  0  0  0  0  0
    0.6194   -2.1584    0.0167 H   0  0  0  0  0  0  0  0  0  0  0  0
    0.9410   -0.8764   -1.2186 H   0  0  0  0  0  0  0  0  0  0  0  0
    0.2630    0.8550    0.3860 H   0  0  0  0  0  0  0  0  0  0  0  0
   -0.1264   -0.4544    1.6248 H   0  0  0  0  0  0  0  0  0  0  0  0
   -1.6616   -1.4976   -0.0282 H   0  0  0  0  0  0  0  0  0  0  0  0
   -0.8750   -0.7790   -2.1272 H   0  0  0  0  0  0  0  0  0  0  0  0
   -1.3198    0.8779   -1.7526 H   0  0  0  0  0  0  0  0  0  0  0  0
   -4.3491    1.2385   -0.0371 H   0  0  0  0  0  0  0  0  0  0  0  0
  1  2  1  0
  2  3  1  0
  3  4  1  0
  4  5  1  0
  5  6  1  0
  5  7  1  0
  7  8  1  0
  7  9  2  0
  1 10  1  0
  1 11  1  0
  1 12  1  0
  3 13  1  0
  3 14  1  0
  4 15  1  0
  4 16  1  0
  5 17  1  6
  6 18  1  0
  6 19  1  0
  8 20  1  0
M  END
$$$$
