
     RDKit          3D

 60 60  0  0  0  0  0  0  0  0999 V2000
    1.7845   -0.7753    0.8746 C   0  0  1  0  0  0  0  0  0  0  0  0
    2.5810   -1.9115    0.2936 C   0  0  0  0  0  0  0  0  0  0  0  0
    3.0766   -2.6828    1.3211 O   0  0  0  0  0  0  0  0  0  0  0  0
    2.5793    0.1134    1.7919 C   0  0  0  0  0  0  0  0  0  0  0  0
    3.6408    0.7248    1.2640 O   0  0  0  0  0  0  0  0  0  0  0  0
    4.8271    0.6094    0.7184 C   0  0  0  0  0  0  0  0  0  0  0  0
    5.7306   -0.3653    0.3736 C   0  0  0  0  0  0  0  0  0  0  0  0
    6.9463   -0.2074   -0.2110 C   0  0  0  0  0  0  0  0  0  0  0  0
    7.3087    1.0802   -0.4865 C   0  0  0  0  0  0  0  0  0  0  0  0
    6.5010    2.1726   -0.1957 C   0  0  0  0  0  0  0  0  0  0  0  0
    5.2697    1.9077    0.4047 C   0  0  0  0  0  0  0  0  0  0  0  0
    8.5769    1.2865   -1.1004 N   0  0  0  0  0  0  0  0  0  0  0  0
    8.9868    2.5475   -1.3992 O   0  0  0  0  0  0  0  0  0  0  0  0
    9.3468    0.3519   -1.3833 O   0  0  0  0  0  0  0  0  0  0  0  0
    1.1602    0.2555   -0.4573 S   0  0  0  0  0  0  0  0  0  0  0  0
   -0.0583   -0.5831   -1.4284 C   0  0  0  0  0  0  0  0  0  0  0  0
   -1.3933   -0.7260   -0.7664 C   0  0  2  0  0  0  0  0  0  0  0  0
   -1.8468    0.6503   -0.5227 N   0  0  0  0  0  0  0  0  0  0  0  0
   -3.0138    0.9769   -0.1554 C   0  0  0  0  0  0  0  0  0  0  0  0
   -3.9183   -0.0584    0.0246 O   0  0  0  0  0  0  0  0  0  0  0  0
   -3.3686    2.3868    0.0626 C   0  0  0  0  0  0  0  0  0  0  0  0
   -4.4884    2.8810   -0.7925 C   0  0  0  0  0  0  0  0  0  0  0  0
   -5.7893    2.1704   -0.6335 C   0  0  2  0  0  0  0  0  0  0  0  0
   -6.7309    2.8066   -1.5520 N   0  0  0  0  0  0  0  0  0  0  0  0
   -6.2689    2.3403    0.7683 C   0  0  0  0  0  0  0  0  0  0  0  0
   -7.3916    3.0062    1.2294 O   0  0  0  0  0  0  0  0  0  0  0  0
   -5.7320    1.9008    1.8202 O   0  0  0  0  0  0  0  0  0  0  0  0
   -1.4025   -1.5268    0.4366 C   0  0  0  0  0  0  0  0  0  0  0  0
   -1.6080   -0.8206    1.6456 O   0  0  0  0  0  0  0  0  0  0  0  0
   -1.2622   -2.7550    0.6165 N   0  0  0  0  0  0  0  0  0  0  0  0
   -1.0439   -3.8558   -0.2310 C   0  0  0  0  0  0  0  0  0  0  0  0
   -2.3188   -4.4959   -0.7020 C   0  0  0  0  0  0  0  0  0  0  0  0
   -2.3321   -5.5946   -1.5367 O   0  0  0  0  0  0  0  0  0  0  0  0
   -3.3993   -3.9760   -0.2939 O   0  0  0  0  0  0  0  0  0  0  0  0
    0.9561   -1.2319    1.4766 H   0  0  0  0  0  0  0  0  0  0  0  0
    1.8889   -2.5936   -0.2991 H   0  0  0  0  0  0  0  0  0  0  0  0
    3.2852   -1.5374   -0.4398 H   0  0  0  0  0  0  0  0  0  0  0  0
    2.5334   -3.4922    1.4907 H   0  0  0  0  0  0  0  0  0  0  0  0
    2.8381   -0.5194    2.7016 H   0  0  0  0  0  0  0  0  0  0  0  0
    1.8362    0.8578    2.2319 H   0  0  0  0  0  0  0  0  0  0  0  0
    5.3678   -1.3415    0.6386 H   0  0  0  0  0  0  0  0  0  0  0  0
    7.5387   -1.0876   -0.4176 H   0  0  0  0  0  0  0  0  0  0  0  0
    6.9023    3.1394   -0.4637 H   0  0  0  0  0  0  0  0  0  0  0  0
    4.7634    2.8710    0.5643 H   0  0  0  0  0  0  0  0  0  0  0  0
    0.2921   -1.5678   -1.8367 H   0  0  0  0  0  0  0  0  0  0  0  0
   -0.1910    0.0257   -2.3872 H   0  0  0  0  0  0  0  0  0  0  0  0
   -2.0861   -1.0942   -1.5617 H   0  0  0  0  0  0  0  0  0  0  0  0
   -3.9723   -0.8208   -0.6701 H   0  0  0  0  0  0  0  0  0  0  0  0
   -3.6173    2.5526    1.1328 H   0  0  0  0  0  0  0  0  0  0  0  0
   -2.4806    3.0341   -0.2125 H   0  0  0  0  0  0  0  0  0  0  0  0
   -4.1738    2.9452   -1.8694 H   0  0  0  0  0  0  0  0  0  0  0  0
   -4.6460    3.9558   -0.5055 H   0  0  0  0  0  0  0  0  0  0  0  0
   -5.6831    1.1272   -0.9350 H   0  0  0  0  0  0  0  0  0  0  0  0
   -6.2574    3.3233   -2.2992 H   0  0  0  0  0  0  0  0  0  0  0  0
   -7.3730    3.4310   -1.0297 H   0  0  0  0  0  0  0  0  0  0  0  0
   -7.2987    3.7966    1.8607 H   0  0  0  0  0  0  0  0  0  0  0  0
   -1.2472   -1.1927    2.5119 H   0  0  0  0  0  0  0  0  0  0  0  0
   -0.3222   -3.7270   -1.0589 H   0  0  0  0  0  0  0  0  0  0  0  0
   -0.5783   -4.6653    0.4072 H   0  0  0  0  0  0  0  0  0  0  0  0
   -3.2246   -6.0227   -1.7881 H   0  0  0  0  0  0  0  0  0  0  0  0
  1  2  1  0
  2  3  1  0
  1  4  1  0
  4  5  1  0
  5  6  1  0
  6  7  2  0
  7  8  1  0
  8  9  2  0
  9 10  1  0
 10 11  2  0
  9 12  1  0
 12 13  1  0
 12 14  2  0
  1 15  1  0
 15 16  1  0
 16 17  1  0
 17 18  1  0
 18 19  2  3
 19 20  1  0
 19 21  1  0
 21 22  1  0
 22 23  1  0
 23 24  1  0
 23 25  1  0
 25 26  1  0
 25 27  2  0
 17 28  1  0
 28 29  1  0
 28 30  2  3
 30 31  1  0
 31 32  1  0
 32 33  1  0
 32 34  2  0
 11  6  1  0
  1 35  1  1
  2 36  1  0
  2 37  1  0
  3 38  1  0
  4 39  1  0
  4 40  1  0
  7 41  1  0
  8 42  1  0
 10 43  1  0
 11 44  1  0
 16 45  1  0
 16 46  1  0
 17 47  1  6
 20 48  1  0
 21 49  1  0
 21 50  1  0
 22 51  1  0
 22 52  1  0
 23 53  1  6
 24 54  1  0
 24 55  1  0
 26 56  1  0
 29 57  1  0
 31 58  1  0
 31 59  1  0
 33 60  1  0
M  CHG  2  12   1  13  -1
M  END
$$$$
