@<TRIPOS>MOLECULE
*****
 60 60 0 0 0
SMALL
GASTEIGER

@<TRIPOS>ATOM
      1 C           1.7845   -0.7753    0.8746 C.3     1  UNK1        0.0624
      2 C           2.5810   -1.9115    0.2936 C.3     1  UNK1        0.0591
      3 O           3.0766   -2.6828    1.3211 O.3     1  UNK1       -0.3938
      4 C           2.5793    0.1134    1.7919 C.3     1  UNK1        0.1035
      5 O           3.6408    0.7248    1.2640 O.3     1  UNK1       -0.4908
      6 C           4.8271    0.6094    0.7184 C.ar    1  UNK1        0.1210
      7 C           5.7306   -0.3653    0.3736 C.ar    1  UNK1       -0.0135
      8 C           6.9463   -0.2074   -0.2110 C.ar    1  UNK1        0.0190
      9 C           7.3087    1.0802   -0.4865 C.ar    1  UNK1        0.2734
     10 C           6.5010    2.1726   -0.1957 C.ar    1  UNK1        0.0190
     11 C           5.2697    1.9077    0.4047 C.ar    1  UNK1       -0.0135
     12 N           8.5769    1.2865   -1.1004 N.pl3   1  UNK1        0.0796
     13 O           8.9868    2.5475   -1.3992 O.co2   1  UNK1       -0.5760
     14 O           9.3468    0.3519   -1.3833 O.2     1  UNK1        0.0414
     15 S           1.1602    0.2555   -0.4573 S.3     1  UNK1       -0.1491
     16 C          -0.0583   -0.5831   -1.4284 C.3     1  UNK1        0.0253
     17 C          -1.3933   -0.7260   -0.7664 C.3     1  UNK1        0.1378
     18 N          -1.8468    0.6503   -0.5227 N.2     1  UNK1       -0.2411
     19 C          -3.0138    0.9769   -0.1554 C.2     1  UNK1        0.1832
     20 O          -3.9183   -0.0584    0.0246 O.2     1  UNK1       -0.4956
     21 C          -3.3686    2.3868    0.0626 C.3     1  UNK1        0.0249
     22 C          -4.4884    2.8810   -0.7925 C.3     1  UNK1       -0.0190
     23 C          -5.7893    2.1704   -0.6335 C.3     1  UNK1        0.1037
     24 N          -6.7309    2.8066   -1.5520 N.3     1  UNK1       -0.3184
     25 C          -6.2689    2.3403    0.7683 C.2     1  UNK1        0.3217
     26 O          -7.3916    3.0062    1.2294 O.3     1  UNK1       -0.4795
     27 O          -5.7320    1.9008    1.8202 O.2     1  UNK1       -0.2493
     28 C          -1.4025   -1.5268    0.4366 C.2     1  UNK1        0.2092
     29 O          -1.6080   -0.8206    1.6456 O.2     1  UNK1       -0.4942
     30 N          -1.2622   -2.7550    0.6165 N.2     2  GLY2       -0.2416
     31 CA         -1.0439   -3.8558   -0.2310 C.3     2  GLY2        0.1398
     32 C          -2.3188   -4.4959   -0.7020 C.2     2  GLY2        0.3264
     33 O          -2.3321   -5.5946   -1.5367 O.3     2  GLY2       -0.4793
     34 OXT        -3.3993   -3.9760   -0.2939 O.2     2  GLY2       -0.2489
     35 H           0.9561   -1.2319    1.4766 H       1  UNK1        0.0468
     36 H           1.8889   -2.5936   -0.2991 H       1  UNK1        0.0569
     37 H           3.2852   -1.5374   -0.4398 H       1  UNK1        0.0569
     38 H           2.5334   -3.4922    1.4907 H       1  UNK1        0.2094
     39 H           2.8381   -0.5194    2.7016 H       1  UNK1        0.0708
     40 H           1.8362    0.8578    2.2319 H       1  UNK1        0.0708
     41 H           5.3678   -1.3415    0.6386 H       1  UNK1        0.0656
     42 H           7.5387   -1.0876   -0.4176 H       1  UNK1        0.0686
     43 H           6.9023    3.1394   -0.4637 H       1  UNK1        0.0686
     44 H           4.7634    2.8710    0.5643 H       1  UNK1        0.0656
     45 H           0.2921   -1.5678   -1.8367 H       1  UNK1        0.0402
     46 H          -0.1910    0.0257   -2.3872 H       1  UNK1        0.0402
     47 H          -2.0861   -1.0942   -1.5617 H       1  UNK1        0.0651
     48 H          -3.9723   -0.8208   -0.6701 H       1  UNK1        0.2934
     49 H          -3.6173    2.5526    1.1328 H       1  UNK1        0.0360
     50 H          -2.4806    3.0341   -0.2125 H       1  UNK1        0.0360
     51 H          -4.1738    2.9452   -1.8694 H       1  UNK1        0.0290
     52 H          -4.6460    3.9558   -0.5055 H       1  UNK1        0.0290
     53 H          -5.6831    1.1272   -0.9350 H       1  UNK1        0.0574
     54 H          -6.2574    3.3233   -2.2992 H       1  UNK1        0.1190
     55 H          -7.3730    3.4310   -1.0297 H       1  UNK1        0.1190
     56 H          -7.2987    3.7966    1.8607 H       1  UNK1        0.2951
     57 H          -1.2472   -1.1927    2.5119 H       1  UNK1        0.2935
     58 HA1        -0.3222   -3.7270   -1.0589 H       2  GLY2        0.0625
     59 HA2        -0.5783   -4.6653    0.4072 H       2  GLY2        0.0625
     60 H          -3.2246   -6.0227   -1.7881 H       2  GLY2        0.2951
@<TRIPOS>UNITY_ATOM_ATTR
12 1
charge 1
13 1
charge -1
@<TRIPOS>BOND
     1     1     2    1
     2     2     3    1
     3     1     4    1
     4     4     5    1
     5     5     6    1
     6     6     7   ar
     7     7     8   ar
     8     8     9   ar
     9     9    10   ar
    10    10    11   ar
    11     9    12    1
    12    12    13    1
    13    12    14    2
    14     1    15    1
    15    15    16    1
    16    16    17    1
    17    17    18    1
    18    18    19    2
    19    19    20    1
    20    19    21    1
    21    21    22    1
    22    22    23    1
    23    23    24    1
    24    23    25    1
    25    25    26    1
    26    25    27    2
    27    17    28    1
    28    28    29    1
    29    28    30    2
    30    30    31    1
    31    31    32    1
    32    32    33    1
    33    32    34    2
    34    11     6   ar
    35     1    35    1
    36     2    36    1
    37     2    37    1
    38     3    38    1
    39     4    39    1
    40     4    40    1
    41     7    41    1
    42     8    42    1
    43    10    43    1
    44    11    44    1
    45    16    45    1
    46    16    46    1
    47    17    47    1
    48    20    48    1
    49    21    49    1
    50    21    50    1
    51    22    51    1
    52    22    52    1
    53    23    53    1
    54    24    54    1
    55    24    55    1
    56    26    56    1
    57    29    57    1
    58    31    58    1
    59    31    59    1
    60    33    60    1
