
     RDKit          3D

 51 53  0  0  0  0  0  0  0  0999 V2000
    4.8107    3.1769    0.6398 C   0  0  0  0  0  0  0  0  0  0  0  0
    4.2687    2.1944    1.4796 O   0  0  0  0  0  0  0  0  0  0  0  0
    3.1591    1.4289    1.0961 C   0  0  0  0  0  0  0  0  0  0  0  0
    2.6103    1.6659   -0.1330 C   0  0  0  0  0  0  0  0  0  0  0  0
    1.5312    0.9612   -0.5732 C   0  0  0  0  0  0  0  0  0  0  0  0
    0.9703   -0.0086    0.2166 C   0  0  0  0  0  0  0  0  0  0  0  0
   -0.2034   -0.8131   -0.2133 C   0  0  0  0  0  0  0  0  0  0  0  0
   -1.3364    0.1522   -1.2378 S   0  0  0  0  0  0  0  0  0  0  0  0
   -2.1380    1.4808   -0.3751 C   0  0  0  0  0  0  0  0  0  0  0  0
   -3.0562    2.2120   -1.3643 C   0  0  2  0  0  0  0  0  0  0  0  0
   -2.2951    2.7406   -2.4614 N   0  0  0  0  0  0  0  0  0  0  0  0
   -3.6582    3.3419   -0.6151 C   0  0  0  0  0  0  0  0  0  0  0  0
   -3.4581    4.5087   -0.9893 O   0  0  0  0  0  0  0  0  0  0  0  0
   -4.4526    3.1409    0.5112 O   0  0  0  0  0  0  0  0  0  0  0  0
    0.3798   -1.8827   -1.0752 C   0  0  0  0  0  0  0  0  0  0  0  0
    1.3110   -2.7786   -0.6142 C   0  0  0  0  0  0  0  0  0  0  0  0
    1.8465   -3.7609   -1.4080 C   0  0  0  0  0  0  0  0  0  0  0  0
    1.4644   -3.8942   -2.7333 C   0  0  0  0  0  0  0  0  0  0  0  0
    0.5350   -3.0125   -3.2222 C   0  0  0  0  0  0  0  0  0  0  0  0
   -0.0002   -2.0265   -2.4190 C   0  0  0  0  0  0  0  0  0  0  0  0
   -0.8656   -1.3340    1.0016 C   0  0  0  0  0  0  0  0  0  0  0  0
   -1.1283   -2.6787    1.1273 C   0  0  0  0  0  0  0  0  0  0  0  0
   -1.7484   -3.1124    2.2806 C   0  0  0  0  0  0  0  0  0  0  0  0
   -2.1047   -2.2515    3.2904 C   0  0  0  0  0  0  0  0  0  0  0  0
   -1.8456   -0.9042    3.1727 C   0  0  0  0  0  0  0  0  0  0  0  0
   -1.2305   -0.4815    2.0264 C   0  0  0  0  0  0  0  0  0  0  0  0
    1.5366   -0.2437    1.4683 C   0  0  0  0  0  0  0  0  0  0  0  0
    2.6241    0.4676    1.9104 C   0  0  0  0  0  0  0  0  0  0  0  0
    5.7671    3.5238    1.1101 H   0  0  0  0  0  0  0  0  0  0  0  0
    5.1115    2.6774   -0.3196 H   0  0  0  0  0  0  0  0  0  0  0  0
    4.1086    4.0176    0.4506 H   0  0  0  0  0  0  0  0  0  0  0  0
    3.0244    2.4263   -0.7906 H   0  0  0  0  0  0  0  0  0  0  0  0
    1.0998    1.1414   -1.5294 H   0  0  0  0  0  0  0  0  0  0  0  0
   -1.4655    2.2610    0.0318 H   0  0  0  0  0  0  0  0  0  0  0  0
   -2.8059    1.1692    0.4522 H   0  0  0  0  0  0  0  0  0  0  0  0
   -3.8289    1.5210   -1.7577 H   0  0  0  0  0  0  0  0  0  0  0  0
   -2.2404    2.0876   -3.2792 H   0  0  0  0  0  0  0  0  0  0  0  0
   -2.6852    3.6412   -2.8278 H   0  0  0  0  0  0  0  0  0  0  0  0
   -4.8358    3.9458    0.9818 H   0  0  0  0  0  0  0  0  0  0  0  0
    1.6352   -2.7125    0.4035 H   0  0  0  0  0  0  0  0  0  0  0  0
    2.5817   -4.4633   -1.0319 H   0  0  0  0  0  0  0  0  0  0  0  0
    1.8580   -4.6439   -3.3796 H   0  0  0  0  0  0  0  0  0  0  0  0
    0.1997   -3.0730   -4.2575 H   0  0  0  0  0  0  0  0  0  0  0  0
   -0.7296   -1.3569   -2.8516 H   0  0  0  0  0  0  0  0  0  0  0  0
   -0.8564   -3.3960    0.3318 H   0  0  0  0  0  0  0  0  0  0  0  0
   -1.9527   -4.1815    2.3710 H   0  0  0  0  0  0  0  0  0  0  0  0
   -2.5890   -2.5823    4.1934 H   0  0  0  0  0  0  0  0  0  0  0  0
   -2.1089   -0.1788    3.9463 H   0  0  0  0  0  0  0  0  0  0  0  0
   -1.0239    0.6005    1.9401 H   0  0  0  0  0  0  0  0  0  0  0  0
    1.1510   -1.0019    2.1559 H   0  0  0  0  0  0  0  0  0  0  0  0
    3.0590    0.2886    2.8697 H   0  0  0  0  0  0  0  0  0  0  0  0
  1  2  1  0
  2  3  1  0
  3  4  2  0
  4  5  1  0
  5  6  2  0
  6  7  1  0
  7  8  1  0
  8  9  1  0
  9 10  1  0
 10 11  1  0
 10 12  1  0
 12 13  2  0
 12 14  1  0
  7 15  1  0
 15 16  2  0
 16 17  1  0
 17 18  2  0
 18 19  1  0
 19 20  2  0
  7 21  1  0
 21 22  2  0
 22 23  1  0
 23 24  2  0
 24 25  1  0
 25 26  2  0
  6 27  1  0
 27 28  2  0
 28  3  1  0
 20 15  1  0
 26 21  1  0
  1 29  1  0
  1 30  1  0
  1 31  1  0
  4 32  1  0
  5 33  1  0
  9 34  1  0
  9 35  1  0
 10 36  1  6
 11 37  1  0
 11 38  1  0
 14 39  1  0
 16 40  1  0
 17 41  1  0
 18 42  1  0
 19 43  1  0
 20 44  1  0
 22 45  1  0
 23 46  1  0
 24 47  1  0
 25 48  1  0
 26 49  1  0
 27 50  1  0
 28 51  1  0
M  END
$$$$
