@<TRIPOS>MOLECULE
*****
 51 53 0 0 0
SMALL
GASTEIGER

@<TRIPOS>ATOM
      1 C1          4.8107    3.1769    0.6398 C.3     1  <1>         0.0788
      2 O1          4.2687    2.1944    1.4796 O.3     1  <1>        -0.4951
      3 C2          3.1591    1.4289    1.0961 C.ar    1  <1>         0.1201
      4 C3          2.6103    1.6659   -0.1330 C.ar    1  <1>        -0.0196
      5 C4          1.5312    0.9612   -0.5732 C.ar    1  <1>        -0.0532
      6 C5          0.9703   -0.0086    0.2166 C.ar    1  <1>        -0.0226
      7 C6         -0.2034   -0.8131   -0.2133 C.3     1  <1>         0.0913
      8 S1         -1.3364    0.1522   -1.2378 S.3     1  <1>        -0.1377
      9 C7         -2.1380    1.4808   -0.3751 C.3     1  <1>         0.0207
     10 C8         -3.0562    2.2120   -1.3643 C.3     1  <1>         0.1123
     11 N1         -2.2951    2.7406   -2.4614 N.3     1  <1>        -0.3177
     12 C9         -3.6582    3.3419   -0.6151 C.2     1  <1>         0.3225
     13 O2         -3.4581    4.5087   -0.9893 O.2     1  <1>        -0.2492
     14 O3         -4.4526    3.1409    0.5112 O.3     1  <1>        -0.4795
     15 C10         0.3798   -1.8827   -1.0752 C.ar    1  <1>        -0.0228
     16 C11         1.3110   -2.7786   -0.6142 C.ar    1  <1>        -0.0566
     17 C12         1.8465   -3.7609   -1.4080 C.ar    1  <1>        -0.0614
     18 C13         1.4644   -3.8942   -2.7333 C.ar    1  <1>        -0.0617
     19 C14         0.5350   -3.0125   -3.2222 C.ar    1  <1>        -0.0614
     20 C15        -0.0002   -2.0265   -2.4190 C.ar    1  <1>        -0.0566
     21 C16        -0.8656   -1.3340    1.0016 C.ar    1  <1>        -0.0228
     22 C17        -1.1283   -2.6787    1.1273 C.ar    1  <1>        -0.0566
     23 C18        -1.7484   -3.1124    2.2806 C.ar    1  <1>        -0.0614
     24 C19        -2.1047   -2.2515    3.2904 C.ar    1  <1>        -0.0617
     25 C20        -1.8456   -0.9042    3.1727 C.ar    1  <1>        -0.0614
     26 C21        -1.2305   -0.4815    2.0264 C.ar    1  <1>        -0.0566
     27 C22         1.5366   -0.2437    1.4683 C.ar    1  <1>        -0.0532
     28 C23         2.6241    0.4676    1.9104 C.ar    1  <1>        -0.0196
     29 H1          5.7671    3.5238    1.1101 H       1  <1>         0.0660
     30 H2          5.1115    2.6774   -0.3196 H       1  <1>         0.0660
     31 H3          4.1086    4.0176    0.4506 H       1  <1>         0.0660
     32 H4          3.0244    2.4263   -0.7906 H       1  <1>         0.0654
     33 H5          1.0998    1.1414   -1.5294 H       1  <1>         0.0622
     34 H6         -1.4655    2.2610    0.0318 H       1  <1>         0.0397
     35 H7         -2.8059    1.1692    0.4522 H       1  <1>         0.0397
     36 H8         -3.8289    1.5210   -1.7577 H       1  <1>         0.0582
     37 H9         -2.2404    2.0876   -3.2792 H       1  <1>         0.1190
     38 H10        -2.6852    3.6412   -2.8278 H       1  <1>         0.1190
     39 H11        -4.8358    3.9458    0.9818 H       1  <1>         0.2951
     40 H12         1.6352   -2.7125    0.4035 H       1  <1>         0.0621
     41 H13         2.5817   -4.4633   -1.0319 H       1  <1>         0.0618
     42 H14         1.8580   -4.6439   -3.3796 H       1  <1>         0.0618
     43 H15         0.1997   -3.0730   -4.2575 H       1  <1>         0.0618
     44 H16        -0.7296   -1.3569   -2.8516 H       1  <1>         0.0621
     45 H17        -0.8564   -3.3960    0.3318 H       1  <1>         0.0621
     46 H18        -1.9527   -4.1815    2.3710 H       1  <1>         0.0618
     47 H19        -2.5890   -2.5823    4.1934 H       1  <1>         0.0618
     48 H20        -2.1089   -0.1788    3.9463 H       1  <1>         0.0618
     49 H21        -1.0239    0.6005    1.9401 H       1  <1>         0.0621
     50 H22         1.1510   -1.0019    2.1559 H       1  <1>         0.0622
     51 H23         3.0590    0.2886    2.8697 H       1  <1>         0.0654
@<TRIPOS>BOND
     1     1     2    1
     2     2     3    1
     3     3     4   ar
     4     4     5   ar
     5     5     6   ar
     6     6     7    1
     7     7     8    1
     8     8     9    1
     9     9    10    1
    10    10    11    1
    11    10    12    1
    12    12    13    2
    13    12    14    1
    14     7    15    1
    15    15    16   ar
    16    16    17   ar
    17    17    18   ar
    18    18    19   ar
    19    19    20   ar
    20     7    21    1
    21    21    22   ar
    22    22    23   ar
    23    23    24   ar
    24    24    25   ar
    25    25    26   ar
    26     6    27   ar
    27    27    28   ar
    28    28     3   ar
    29    20    15   ar
    30    26    21   ar
    31     1    29    1
    32     1    30    1
    33     1    31    1
    34     4    32    1
    35     5    33    1
    36     9    34    1
    37     9    35    1
    38    10    36    1
    39    11    37    1
    40    11    38    1
    41    14    39    1
    42    16    40    1
    43    17    41    1
    44    18    42    1
    45    19    43    1
    46    20    44    1
    47    22    45    1
    48    23    46    1
    49    24    47    1
    50    25    48    1
    51    26    49    1
    52    27    50    1
    53    28    51    1
