@<TRIPOS>MOLECULE
*****
 102 106 0 0 0
SMALL
GASTEIGER

@<TRIPOS>ATOM
      1 C           2.6517   -2.9752    2.0583 C.3     1  UNL1       -0.0202
      2 C           2.5952   -3.1857    3.5593 C.3     1  UNL1       -0.0485
      3 C           3.4682   -2.0941    4.1488 C.3     1  UNL1       -0.0524
      4 C           3.3884   -0.9439    3.1685 C.3     1  UNL1       -0.0478
      5 C           2.9996   -1.5565    1.8321 C.3     1  UNL1       -0.0096
      6 C           1.7648   -0.8970    1.2822 C.3     1  UNL1        0.1053
      7 N           0.9589   -2.0033    0.8477 N.am    1  UNL1       -0.2878
      8 C           1.3376   -3.2923    1.3872 C.3     1  UNL1        0.0187
      9 C          -0.1164   -1.7613   -0.0198 C.2     1  UNL1        0.2370
     10 O          -0.4920   -0.6364   -0.4353 O.2     1  UNL1       -0.2735
     11 C          -1.2518   -2.0157   -0.8810 C.3     1  UNL1        0.1045
     12 N          -1.9031   -0.7865   -1.3393 N.am    1  UNL1       -0.3020
     13 C          -3.2778   -0.5663   -1.0836 C.2     1  UNL1        0.2342
     14 O          -4.0725   -1.3636   -0.4545 O.2     1  UNL1       -0.2738
     15 C          -4.5084    0.2185   -1.1621 C.3     1  UNL1        0.1025
     16 N          -5.6099   -0.4266   -0.4586 N.am    1  UNL1       -0.2985
     17 C          -6.8417   -0.9864   -0.9654 C.2     1  UNL1        0.2645
     18 O          -7.1145   -0.9707   -2.1916 O.2     1  UNL1       -0.2685
     19 C          -7.7075   -1.5560    0.0751 C.ar    1  UNL1        0.1433
     20 N          -7.4135   -1.5671    1.4062 N.ar    1  UNL1       -0.2473
     21 C          -8.3020   -2.1301    2.2799 C.ar    1  UNL1        0.0465
     22 C          -9.4860   -2.6850    1.8391 C.ar    1  UNL1        0.0457
     23 N          -9.7380   -2.6541    0.5234 N.ar    1  UNL1       -0.2595
     24 C          -8.8938   -2.1145   -0.3443 C.ar    1  UNL1        0.0580
     25 C          -4.4256    1.6374   -0.7430 C.3     1  UNL1       -0.0141
     26 C          -3.9905    1.8826    0.6710 C.3     1  UNL1       -0.0481
     27 C          -4.4692    3.2995    1.0148 C.3     1  UNL1       -0.0527
     28 C          -3.7874    4.2683    0.0806 C.3     1  UNL1       -0.0530
     29 C          -4.1127    3.9489   -1.3824 C.3     1  UNL1       -0.0527
     30 C          -3.6491    2.5180   -1.7006 C.3     1  UNL1       -0.0481
     31 C          -0.8899   -2.8443   -2.1120 C.3     1  UNL1       -0.0108
     32 C          -0.3462   -4.1636   -1.6516 C.3     1  UNL1       -0.0579
     33 C           0.1274   -2.1622   -2.9709 C.3     1  UNL1       -0.0579
     34 C          -2.2058   -3.0615   -2.8520 C.3     1  UNL1       -0.0579
     35 C           2.1255    0.0038    0.1301 C.2     1  UNL1        0.2344
     36 O           1.9245    0.0528   -1.1086 O.2     1  UNL1       -0.2737
     37 N           2.9314    1.1415    0.5286 N.am    1  UNL1       -0.3036
     38 C           3.3793    2.1182   -0.4625 C.3     1  UNL1        0.0907
     39 C           3.1030    3.5181   -0.0269 C.3     1  UNL1       -0.0273
     40 C           3.5819    4.4724   -1.0923 C.3     1  UNL1       -0.0538
     41 C           2.8751    4.2244   -2.4176 C.3     1  UNL1       -0.0652
     42 C           4.8367    1.9454   -0.6522 C.2     1  UNL1        0.2371
     43 O           4.4562    1.1025    0.2316 O.2     1  UNL1       -0.2852
     44 C           6.2406    1.9721   -1.0164 C.2     1  UNL1        0.2817
     45 O           6.7524    2.7317   -1.8772 O.2     1  UNL1       -0.2670
     46 N           7.1033    1.0731   -0.3516 N.am    1  UNL1       -0.3061
     47 C           8.5014    1.0944   -0.7101 C.3     1  UNL1        0.0236
     48 C           9.3228   -0.1352   -0.4804 C.3     1  UNL1       -0.0328
     49 C           9.4451    1.0710    0.4609 C.3     1  UNL1       -0.0328
     50 H           3.4540   -3.6085    1.5970 H       1  UNL1        0.0319
     51 H           1.5655   -3.1515    3.9581 H       1  UNL1        0.0269
     52 H           3.0592   -4.1489    3.7892 H       1  UNL1        0.0269
     53 H           3.1276   -1.7899    5.1572 H       1  UNL1        0.0265
     54 H           4.5285   -2.4237    4.2589 H       1  UNL1        0.0265
     55 H           2.6387   -0.1811    3.4904 H       1  UNL1        0.0269
     56 H           4.3691   -0.4567    3.0376 H       1  UNL1        0.0269
     57 H           3.8306   -1.4179    1.0895 H       1  UNL1        0.0327
     58 H           1.2418   -0.3253    2.0779 H       1  UNL1        0.0599
     59 H           1.3988   -4.1035    0.6651 H       1  UNL1        0.0467
     60 H           0.5989   -3.6390    2.1604 H       1  UNL1        0.0467
     61 H          -2.0180   -2.6089   -0.3596 H       1  UNL1        0.0600
     62 H          -1.7471    0.1205   -1.8484 H       1  UNL1        0.1495
     63 H          -4.8472    0.2271   -2.2387 H       1  UNL1        0.0597
     64 H          -5.3932   -0.4464    0.5718 H       1  UNL1        0.1498
     65 H          -7.8809   -2.0368    3.2938 H       1  UNL1        0.0845
     66 H         -10.0646   -3.0813    2.6590 H       1  UNL1        0.0845
     67 H          -9.1702   -2.1285   -1.3964 H       1  UNL1        0.0853
     68 H          -5.4837    2.0406   -0.7966 H       1  UNL1        0.0323
     69 H          -2.8786    1.8246    0.7443 H       1  UNL1        0.0269
     70 H          -4.5092    1.1968    1.3362 H       1  UNL1        0.0269
     71 H          -5.5610    3.3030    0.8578 H       1  UNL1        0.0265
     72 H          -4.1779    3.5734    2.0467 H       1  UNL1        0.0265
     73 H          -2.7002    4.2152    0.2228 H       1  UNL1        0.0265
     74 H          -4.2022    5.2867    0.2445 H       1  UNL1        0.0265
     75 H          -3.6260    4.6998   -2.0124 H       1  UNL1        0.0265
     76 H          -5.2263    3.9366   -1.4519 H       1  UNL1        0.0265
     77 H          -2.5635    2.3937   -1.5832 H       1  UNL1        0.0269
     78 H          -4.0014    2.3053   -2.7216 H       1  UNL1        0.0269
     79 H          -0.7689   -4.4411   -0.6755 H       1  UNL1        0.0236
     80 H           0.7634   -4.1841   -1.6207 H       1  UNL1        0.0236
     81 H          -0.7202   -4.9201   -2.4040 H       1  UNL1        0.0236
     82 H          -0.0973   -2.4310   -4.0303 H       1  UNL1        0.0236
     83 H           0.0548   -1.0553   -2.9415 H       1  UNL1        0.0236
     84 H           1.1633   -2.5177   -2.7826 H       1  UNL1        0.0236
     85 H          -2.8721   -3.5920   -2.1440 H       1  UNL1        0.0236
     86 H          -2.6868   -2.0645   -3.0307 H       1  UNL1        0.0236
     87 H          -2.0730   -3.6370   -3.7709 H       1  UNL1        0.0236
     88 H           3.1980    1.2917    1.5484 H       1  UNL1        0.1495
     89 H           2.9267    1.9522   -1.4646 H       1  UNL1        0.0582
     90 H           3.7406    3.7282    0.8716 H       1  UNL1        0.0287
     91 H           2.0328    3.7218    0.1749 H       1  UNL1        0.0287
     92 H           4.6675    4.3760   -1.2774 H       1  UNL1        0.0263
     93 H           3.3655    5.5361   -0.8160 H       1  UNL1        0.0263
     94 H           1.8317    3.9441   -2.2560 H       1  UNL1        0.0230
     95 H           2.9092    5.1618   -3.0264 H       1  UNL1        0.0230
     96 H           3.4042    3.4324   -3.0113 H       1  UNL1        0.0230
     97 H           6.8414    0.3712    0.3932 H       1  UNL1        0.1494
     98 H           8.8383    1.7833   -1.5270 H       1  UNL1        0.0498
     99 H           8.8355   -1.0620   -0.0841 H       1  UNL1        0.0284
    100 H          10.2242   -0.3346   -1.0883 H       1  UNL1        0.0284
    101 H           9.0183    0.9528    1.4795 H       1  UNL1        0.0284
    102 H          10.3759    1.6527    0.4304 H       1  UNL1        0.0284
@<TRIPOS>BOND
     1     1     2    1
     2     2     3    1
     3     3     4    1
     4     4     5    1
     5     5     6    1
     6     6     7    1
     7     7     8    1
     8     7     9   am
     9     9    10    2
    10     9    11    1
    11    11    12    1
    12    12    13   am
    13    13    14    2
    14    13    15    1
    15    15    16    1
    16    16    17   am
    17    17    18    2
    18    17    19    1
    19    19    20   ar
    20    20    21   ar
    21    21    22   ar
    22    22    23   ar
    23    23    24   ar
    24    15    25    1
    25    25    26    1
    26    26    27    1
    27    27    28    1
    28    28    29    1
    29    29    30    1
    30    11    31    1
    31    31    32    1
    32    31    33    1
    33    31    34    1
    34     6    35    1
    35    35    36    2
    36    35    37   am
    37    37    38    1
    38    38    39    1
    39    39    40    1
    40    40    41    1
    41    38    42    1
    42    42    43    2
    43    42    44    1
    44    44    45    2
    45    44    46   am
    46    46    47    1
    47    47    48    1
    48    48    49    1
    49     5     1    1
    50    24    19   ar
    51    30    25    1
    52    49    47    1
    53     8     1    1
    54     1    50    1
    55     2    51    1
    56     2    52    1
    57     3    53    1
    58     3    54    1
    59     4    55    1
    60     4    56    1
    61     5    57    1
    62     6    58    1
    63     8    59    1
    64     8    60    1
    65    11    61    1
    66    12    62    1
    67    15    63    1
    68    16    64    1
    69    21    65    1
    70    22    66    1
    71    24    67    1
    72    25    68    1
    73    26    69    1
    74    26    70    1
    75    27    71    1
    76    27    72    1
    77    28    73    1
    78    28    74    1
    79    29    75    1
    80    29    76    1
    81    30    77    1
    82    30    78    1
    83    32    79    1
    84    32    80    1
    85    32    81    1
    86    33    82    1
    87    33    83    1
    88    33    84    1
    89    34    85    1
    90    34    86    1
    91    34    87    1
    92    37    88    1
    93    38    89    1
    94    39    90    1
    95    39    91    1
    96    40    92    1
    97    40    93    1
    98    41    94    1
    99    41    95    1
   100    41    96    1
   101    46    97    1
   102    47    98    1
   103    48    99    1
   104    48   100    1
   105    49   101    1
   106    49   102    1
