
     RDKit          3D

102106  0  0  0  0  0  0  0  0999 V2000
    2.6517   -2.9752    2.0583 C   0  0  2  0  0  0  0  0  0  0  0  0
    2.5952   -3.1857    3.5593 C   0  0  0  0  0  0  0  0  0  0  0  0
    3.4682   -2.0941    4.1488 C   0  0  0  0  0  0  0  0  0  0  0  0
    3.3884   -0.9439    3.1685 C   0  0  0  0  0  0  0  0  0  0  0  0
    2.9996   -1.5565    1.8321 C   0  0  2  0  0  0  0  0  0  0  0  0
    1.7648   -0.8970    1.2822 C   0  0  2  0  0  0  0  0  0  0  0  0
    0.9589   -2.0033    0.8477 N   0  0  0  0  0  0  0  0  0  0  0  0
    1.3376   -3.2923    1.3872 C   0  0  0  0  0  0  0  0  0  0  0  0
   -0.1164   -1.7613   -0.0198 C   0  0  0  0  0  0  0  0  0  0  0  0
   -0.4920   -0.6364   -0.4353 O   0  0  0  0  0  0  0  0  0  0  0  0
   -1.2518   -2.0157   -0.8810 C   0  0  1  0  0  0  0  0  0  0  0  0
   -1.9031   -0.7865   -1.3393 N   0  0  0  0  0  0  0  0  0  0  0  0
   -3.2778   -0.5663   -1.0836 C   0  0  0  0  0  0  0  0  0  0  0  0
   -4.0725   -1.3636   -0.4545 O   0  0  0  0  0  0  0  0  0  0  0  0
   -4.5084    0.2185   -1.1621 C   0  0  1  0  0  0  0  0  0  0  0  0
   -5.6099   -0.4266   -0.4586 N   0  0  0  0  0  0  0  0  0  0  0  0
   -6.8417   -0.9864   -0.9654 C   0  0  0  0  0  0  0  0  0  0  0  0
   -7.1145   -0.9707   -2.1916 O   0  0  0  0  0  0  0  0  0  0  0  0
   -7.7075   -1.5560    0.0751 C   0  0  0  0  0  0  0  0  0  0  0  0
   -7.4135   -1.5671    1.4062 N   0  0  0  0  0  0  0  0  0  0  0  0
   -8.3020   -2.1301    2.2799 C   0  0  0  0  0  0  0  0  0  0  0  0
   -9.4860   -2.6850    1.8391 C   0  0  0  0  0  0  0  0  0  0  0  0
   -9.7380   -2.6541    0.5234 N   0  0  0  0  0  0  0  0  0  0  0  0
   -8.8938   -2.1145   -0.3443 C   0  0  0  0  0  0  0  0  0  0  0  0
   -4.4256    1.6374   -0.7430 C   0  0  0  0  0  0  0  0  0  0  0  0
   -3.9905    1.8826    0.6710 C   0  0  0  0  0  0  0  0  0  0  0  0
   -4.4692    3.2995    1.0148 C   0  0  0  0  0  0  0  0  0  0  0  0
   -3.7874    4.2683    0.0806 C   0  0  0  0  0  0  0  0  0  0  0  0
   -4.1127    3.9489   -1.3824 C   0  0  0  0  0  0  0  0  0  0  0  0
   -3.6491    2.5180   -1.7006 C   0  0  0  0  0  0  0  0  0  0  0  0
   -0.8899   -2.8443   -2.1120 C   0  0  0  0  0  0  0  0  0  0  0  0
   -0.3462   -4.1636   -1.6516 C   0  0  0  0  0  0  0  0  0  0  0  0
    0.1274   -2.1622   -2.9709 C   0  0  0  0  0  0  0  0  0  0  0  0
   -2.2058   -3.0615   -2.8520 C   0  0  0  0  0  0  0  0  0  0  0  0
    2.1255    0.0038    0.1301 C   0  0  0  0  0  0  0  0  0  0  0  0
    1.9245    0.0528   -1.1086 O   0  0  0  0  0  0  0  0  0  0  0  0
    2.9314    1.1415    0.5286 N   0  0  0  0  0  0  0  0  0  0  0  0
    3.3793    2.1182   -0.4625 C   0  0  1  0  0  0  0  0  0  0  0  0
    3.1030    3.5181   -0.0269 C   0  0  0  0  0  0  0  0  0  0  0  0
    3.5819    4.4724   -1.0923 C   0  0  0  0  0  0  0  0  0  0  0  0
    2.8751    4.2244   -2.4176 C   0  0  0  0  0  0  0  0  0  0  0  0
    4.8367    1.9454   -0.6522 C   0  0  0  0  0  0  0  0  0  0  0  0
    4.4562    1.1025    0.2316 O   0  0  0  0  0  0  0  0  0  0  0  0
    6.2406    1.9721   -1.0164 C   0  0  0  0  0  0  0  0  0  0  0  0
    6.7524    2.7317   -1.8772 O   0  0  0  0  0  0  0  0  0  0  0  0
    7.1033    1.0731   -0.3516 N   0  0  0  0  0  0  0  0  0  0  0  0
    8.5014    1.0944   -0.7101 C   0  0  0  0  0  0  0  0  0  0  0  0
    9.3228   -0.1352   -0.4804 C   0  0  0  0  0  0  0  0  0  0  0  0
    9.4451    1.0710    0.4609 C   0  0  0  0  0  0  0  0  0  0  0  0
    3.4540   -3.6085    1.5970 H   0  0  0  0  0  0  0  0  0  0  0  0
    1.5655   -3.1515    3.9581 H   0  0  0  0  0  0  0  0  0  0  0  0
    3.0592   -4.1489    3.7892 H   0  0  0  0  0  0  0  0  0  0  0  0
    3.1276   -1.7899    5.1572 H   0  0  0  0  0  0  0  0  0  0  0  0
    4.5285   -2.4237    4.2589 H   0  0  0  0  0  0  0  0  0  0  0  0
    2.6387   -0.1811    3.4904 H   0  0  0  0  0  0  0  0  0  0  0  0
    4.3691   -0.4567    3.0376 H   0  0  0  0  0  0  0  0  0  0  0  0
    3.8306   -1.4179    1.0895 H   0  0  0  0  0  0  0  0  0  0  0  0
    1.2418   -0.3253    2.0779 H   0  0  0  0  0  0  0  0  0  0  0  0
    1.3988   -4.1035    0.6651 H   0  0  0  0  0  0  0  0  0  0  0  0
    0.5989   -3.6390    2.1604 H   0  0  0  0  0  0  0  0  0  0  0  0
   -2.0180   -2.6089   -0.3596 H   0  0  0  0  0  0  0  0  0  0  0  0
   -1.7471    0.1205   -1.8484 H   0  0  0  0  0  0  0  0  0  0  0  0
   -4.8472    0.2271   -2.2387 H   0  0  0  0  0  0  0  0  0  0  0  0
   -5.3932   -0.4464    0.5718 H   0  0  0  0  0  0  0  0  0  0  0  0
   -7.8809   -2.0368    3.2938 H   0  0  0  0  0  0  0  0  0  0  0  0
  -10.0646   -3.0813    2.6590 H   0  0  0  0  0  0  0  0  0  0  0  0
   -9.1702   -2.1285   -1.3964 H   0  0  0  0  0  0  0  0  0  0  0  0
   -5.4837    2.0406   -0.7966 H   0  0  0  0  0  0  0  0  0  0  0  0
   -2.8786    1.8246    0.7443 H   0  0  0  0  0  0  0  0  0  0  0  0
   -4.5092    1.1968    1.3362 H   0  0  0  0  0  0  0  0  0  0  0  0
   -5.5610    3.3030    0.8578 H   0  0  0  0  0  0  0  0  0  0  0  0
   -4.1779    3.5734    2.0467 H   0  0  0  0  0  0  0  0  0  0  0  0
   -2.7002    4.2152    0.2228 H   0  0  0  0  0  0  0  0  0  0  0  0
   -4.2022    5.2867    0.2445 H   0  0  0  0  0  0  0  0  0  0  0  0
   -3.6260    4.6998   -2.0124 H   0  0  0  0  0  0  0  0  0  0  0  0
   -5.2263    3.9366   -1.4519 H   0  0  0  0  0  0  0  0  0  0  0  0
   -2.5635    2.3937   -1.5832 H   0  0  0  0  0  0  0  0  0  0  0  0
   -4.0014    2.3053   -2.7216 H   0  0  0  0  0  0  0  0  0  0  0  0
   -0.7689   -4.4411   -0.6755 H   0  0  0  0  0  0  0  0  0  0  0  0
    0.7634   -4.1841   -1.6207 H   0  0  0  0  0  0  0  0  0  0  0  0
   -0.7202   -4.9201   -2.4040 H   0  0  0  0  0  0  0  0  0  0  0  0
   -0.0973   -2.4310   -4.0303 H   0  0  0  0  0  0  0  0  0  0  0  0
    0.0548   -1.0553   -2.9415 H   0  0  0  0  0  0  0  0  0  0  0  0
    1.1633   -2.5177   -2.7826 H   0  0  0  0  0  0  0  0  0  0  0  0
   -2.8721   -3.5920   -2.1440 H   0  0  0  0  0  0  0  0  0  0  0  0
   -2.6868   -2.0645   -3.0307 H   0  0  0  0  0  0  0  0  0  0  0  0
   -2.0730   -3.6370   -3.7709 H   0  0  0  0  0  0  0  0  0  0  0  0
    3.1980    1.2917    1.5484 H   0  0  0  0  0  0  0  0  0  0  0  0
    2.9267    1.9522   -1.4646 H   0  0  0  0  0  0  0  0  0  0  0  0
    3.7406    3.7282    0.8716 H   0  0  0  0  0  0  0  0  0  0  0  0
    2.0328    3.7218    0.1749 H   0  0  0  0  0  0  0  0  0  0  0  0
    4.6675    4.3760   -1.2774 H   0  0  0  0  0  0  0  0  0  0  0  0
    3.3655    5.5361   -0.8160 H   0  0  0  0  0  0  0  0  0  0  0  0
    1.8317    3.9441   -2.2560 H   0  0  0  0  0  0  0  0  0  0  0  0
    2.9092    5.1618   -3.0264 H   0  0  0  0  0  0  0  0  0  0  0  0
    3.4042    3.4324   -3.0113 H   0  0  0  0  0  0  0  0  0  0  0  0
    6.8414    0.3712    0.3932 H   0  0  0  0  0  0  0  0  0  0  0  0
    8.8383    1.7833   -1.5270 H   0  0  0  0  0  0  0  0  0  0  0  0
    8.8355   -1.0620   -0.0841 H   0  0  0  0  0  0  0  0  0  0  0  0
   10.2242   -0.3346   -1.0883 H   0  0  0  0  0  0  0  0  0  0  0  0
    9.0183    0.9528    1.4795 H   0  0  0  0  0  0  0  0  0  0  0  0
   10.3759    1.6527    0.4304 H   0  0  0  0  0  0  0  0  0  0  0  0
  1  2  1  0
  2  3  1  0
  3  4  1  0
  4  5  1  0
  5  6  1  0
  6  7  1  0
  7  8  1  0
  7  9  1  0
  9 10  2  0
  9 11  1  0
 11 12  1  0
 12 13  1  0
 13 14  2  0
 13 15  1  0
 15 16  1  0
 16 17  1  0
 17 18  2  0
 17 19  1  0
 19 20  2  0
 20 21  1  0
 21 22  2  0
 22 23  1  0
 23 24  2  0
 15 25  1  0
 25 26  1  0
 26 27  1  0
 27 28  1  0
 28 29  1  0
 29 30  1  0
 11 31  1  0
 31 32  1  0
 31 33  1  0
 31 34  1  0
  6 35  1  0
 35 36  2  0
 35 37  1  0
 37 38  1  0
 38 39  1  0
 39 40  1  0
 40 41  1  0
 38 42  1  0
 42 43  2  0
 42 44  1  0
 44 45  2  0
 44 46  1  0
 46 47  1  0
 47 48  1  0
 48 49  1  0
  5  1  1  0
 24 19  1  0
 30 25  1  0
 49 47  1  0
  8  1  1  0
  1 50  1  6
  2 51  1  0
  2 52  1  0
  3 53  1  0
  3 54  1  0
  4 55  1  0
  4 56  1  0
  5 57  1  6
  6 58  1  1
  8 59  1  0
  8 60  1  0
 11 61  1  1
 12 62  1  0
 15 63  1  6
 16 64  1  0
 21 65  1  0
 22 66  1  0
 24 67  1  0
 25 68  1  0
 26 69  1  0
 26 70  1  0
 27 71  1  0
 27 72  1  0
 28 73  1  0
 28 74  1  0
 29 75  1  0
 29 76  1  0
 30 77  1  0
 30 78  1  0
 32 79  1  0
 32 80  1  0
 32 81  1  0
 33 82  1  0
 33 83  1  0
 33 84  1  0
 34 85  1  0
 34 86  1  0
 34 87  1  0
 37 88  1  0
 38 89  1  6
 39 90  1  0
 39 91  1  0
 40 92  1  0
 40 93  1  0
 41 94  1  0
 41 95  1  0
 41 96  1  0
 46 97  1  0
 47 98  1  0
 48 99  1  0
 48100  1  0
 49101  1  0
 49102  1  0
M  END
$$$$
