
     RDKit          3D

 53 55  0  0  0  0  0  0  0  0999 V2000
    1.9896    0.6669    0.1736 N   0  0  0  0  0  0  0  0  0  0  0  0
    0.5944    0.8932    0.2290 C   0  0  0  0  0  0  0  0  0  0  0  0
   -0.3844   -0.0676    0.3445 C   0  0  0  0  0  0  0  0  0  0  0  0
   -1.7419    0.1574    0.3981 C   0  0  0  0  0  0  0  0  0  0  0  0
   -2.1890    1.4600    0.3317 C   0  0  0  0  0  0  0  0  0  0  0  0
   -3.5436    1.7323    0.3820 O   0  0  0  0  0  0  0  0  0  0  0  0
   -4.4289    0.6308    0.5023 C   0  0  0  0  0  0  0  0  0  0  0  0
   -5.8392    1.1994    0.5351 C   0  0  2  0  0  0  0  0  0  0  0  0
   -5.8889    2.0461    1.6500 O   0  0  0  0  0  0  0  0  0  0  0  0
   -6.7617    0.0161    0.7097 C   0  0  0  0  0  0  0  0  0  0  0  0
   -6.6452   -0.8018   -0.4868 N   0  0  0  0  0  0  0  0  0  0  0  0
   -7.5118   -1.9611   -0.3810 C   0  0  0  0  0  0  0  0  0  0  0  0
   -7.0380   -0.0526   -1.6743 C   0  0  0  0  0  0  0  0  0  0  0  0
   -1.2550    2.4669    0.2154 C   0  0  0  0  0  0  0  0  0  0  0  0
    0.0880    2.1748    0.1671 C   0  0  0  0  0  0  0  0  0  0  0  0
    2.6559   -0.5818    0.2251 C   0  0  0  0  0  0  0  0  0  0  0  0
    2.1039   -1.7947    0.3360 N   0  0  0  0  0  0  0  0  0  0  0  0
    2.7639   -2.9585    0.3820 C   0  0  0  0  0  0  0  0  0  0  0  0
    4.1327   -2.8717    0.3066 C   0  0  0  0  0  0  0  0  0  0  0  0
    5.1172   -4.5221    0.3694 Br  0  0  0  0  0  0  0  0  0  0  0  0
    4.7867   -1.6641    0.1909 C   0  0  0  0  0  0  0  0  0  0  0  0
    3.9883   -0.5986    0.1586 N   0  0  0  0  0  0  0  0  0  0  0  0
    6.2015   -1.6284    0.1167 N   0  0  0  0  0  0  0  0  0  0  0  0
    7.0572   -0.5066   -0.0034 C   0  0  0  0  0  0  0  0  0  0  0  0
    6.6595    0.8084   -0.0728 C   0  0  0  0  0  0  0  0  0  0  0  0
    7.4843    1.9055   -0.1896 C   0  0  0  0  0  0  0  0  0  0  0  0
    8.8409    1.6653   -0.2422 C   0  0  0  0  0  0  0  0  0  0  0  0
    9.3026    0.3796   -0.1780 C   0  0  0  0  0  0  0  0  0  0  0  0
    8.4235   -0.6713   -0.0616 C   0  0  0  0  0  0  0  0  0  0  0  0
    2.5773    1.5265    0.0849 H   0  0  0  0  0  0  0  0  0  0  0  0
   -0.1073   -1.1035    0.4013 H   0  0  0  0  0  0  0  0  0  0  0  0
   -2.4577   -0.6475    0.4896 H   0  0  0  0  0  0  0  0  0  0  0  0
   -4.2843   -0.1009   -0.3176 H   0  0  0  0  0  0  0  0  0  0  0  0
   -4.2610    0.0841    1.4589 H   0  0  0  0  0  0  0  0  0  0  0  0
   -6.0364    1.8048   -0.3493 H   0  0  0  0  0  0  0  0  0  0  0  0
   -5.1874    2.7241    1.4863 H   0  0  0  0  0  0  0  0  0  0  0  0
   -6.3444   -0.5981    1.5436 H   0  0  0  0  0  0  0  0  0  0  0  0
   -7.8115    0.2976    0.9165 H   0  0  0  0  0  0  0  0  0  0  0  0
   -7.7276   -2.1802    0.6757 H   0  0  0  0  0  0  0  0  0  0  0  0
   -8.4263   -1.8031   -0.9852 H   0  0  0  0  0  0  0  0  0  0  0  0
   -6.9345   -2.8222   -0.7800 H   0  0  0  0  0  0  0  0  0  0  0  0
   -6.1886    0.4825   -2.1341 H   0  0  0  0  0  0  0  0  0  0  0  0
   -7.3764   -0.8129   -2.4293 H   0  0  0  0  0  0  0  0  0  0  0  0
   -7.9196    0.5856   -1.4789 H   0  0  0  0  0  0  0  0  0  0  0  0
   -1.6150    3.4857    0.1640 H   0  0  0  0  0  0  0  0  0  0  0  0
    0.7410    3.0331    0.0752 H   0  0  0  0  0  0  0  0  0  0  0  0
    2.2490   -3.9038    0.4727 H   0  0  0  0  0  0  0  0  0  0  0  0
    6.6891   -2.5609    0.1556 H   0  0  0  0  0  0  0  0  0  0  0  0
    5.6087    1.0494   -0.0358 H   0  0  0  0  0  0  0  0  0  0  0  0
    7.1003    2.9151   -0.2389 H   0  0  0  0  0  0  0  0  0  0  0  0
    9.5180    2.5029   -0.3338 H   0  0  0  0  0  0  0  0  0  0  0  0
   10.3670    0.1928   -0.2194 H   0  0  0  0  0  0  0  0  0  0  0  0
    8.8653   -1.6727   -0.0158 H   0  0  0  0  0  0  0  0  0  0  0  0
  1  2  1  0
  2  3  2  0
  3  4  1  0
  4  5  2  0
  5  6  1  0
  6  7  1  0
  7  8  1  0
  8  9  1  0
  8 10  1  0
 10 11  1  0
 11 12  1  0
 11 13  1  0
  5 14  1  0
 14 15  2  0
  1 16  1  0
 16 17  2  0
 17 18  1  0
 18 19  2  0
 19 20  1  0
 19 21  1  0
 21 22  2  0
 21 23  1  0
 23 24  1  0
 24 25  2  0
 25 26  1  0
 26 27  2  0
 27 28  1  0
 28 29  2  0
 15  2  1  0
 22 16  1  0
 29 24  1  0
  1 30  1  0
  3 31  1  0
  4 32  1  0
  7 33  1  0
  7 34  1  0
  8 35  1  6
  9 36  1  0
 10 37  1  0
 10 38  1  0
 12 39  1  0
 12 40  1  0
 12 41  1  0
 13 42  1  0
 13 43  1  0
 13 44  1  0
 14 45  1  0
 15 46  1  0
 18 47  1  0
 23 48  1  0
 25 49  1  0
 26 50  1  0
 27 51  1  0
 28 52  1  0
 29 53  1  0
M  END
$$$$
