@<TRIPOS>MOLECULE
*****
 53 55 0 0 0
SMALL
GASTEIGER

@<TRIPOS>ATOM
      1 N           1.9896    0.6669    0.1736 N.pl3   1  UNL1       -0.2836
      2 C           0.5944    0.8932    0.2290 C.ar    1  UNL1        0.0338
      3 C          -0.3844   -0.0676    0.3445 C.ar    1  UNL1       -0.0370
      4 C          -1.7419    0.1574    0.3981 C.ar    1  UNL1       -0.0182
      5 C          -2.1890    1.4600    0.3317 C.ar    1  UNL1        0.1207
      6 O          -3.5436    1.7323    0.3820 O.3     1  UNL1       -0.4894
      7 C          -4.4289    0.6308    0.5023 C.3     1  UNL1        0.1166
      8 C          -5.8392    1.1994    0.5351 C.3     1  UNL1        0.1017
      9 O          -5.8889    2.0461    1.6500 O.3     1  UNL1       -0.3872
     10 C          -6.7617    0.0161    0.7097 C.3     1  UNL1        0.0276
     11 N          -6.6452   -0.8018   -0.4868 N.3     1  UNL1       -0.3058
     12 C          -7.5118   -1.9611   -0.3810 C.3     1  UNL1       -0.0130
     13 C          -7.0380   -0.0526   -1.6743 C.3     1  UNL1       -0.0130
     14 C          -1.2550    2.4669    0.2154 C.ar    1  UNL1       -0.0182
     15 C           0.0880    2.1748    0.1671 C.ar    1  UNL1       -0.0370
     16 C           2.6559   -0.5818    0.2251 C.ar    1  UNL1        0.2212
     17 N           2.1039   -1.7947    0.3360 N.ar    1  UNL1       -0.2214
     18 C           2.7639   -2.9585    0.3820 C.ar    1  UNL1        0.0485
     19 C           4.1327   -2.8717    0.3066 C.ar    1  UNL1        0.0760
     20 BR          5.1172   -4.5221    0.3694 Br      1  UNL1       -0.0452
     21 C           4.7867   -1.6641    0.1909 C.ar    1  UNL1        0.1421
     22 N           3.9883   -0.5986    0.1586 N.ar    1  UNL1       -0.1980
     23 N           6.2015   -1.6284    0.1167 N.pl3   1  UNL1       -0.2984
     24 C           7.0572   -0.5066   -0.0034 C.ar    1  UNL1        0.0324
     25 C           6.6595    0.8084   -0.0728 C.ar    1  UNL1       -0.0405
     26 C           7.4843    1.9055   -0.1896 C.ar    1  UNL1       -0.0600
     27 C           8.8409    1.6653   -0.2422 C.ar    1  UNL1       -0.0616
     28 C           9.3026    0.3796   -0.1780 C.ar    1  UNL1       -0.0600
     29 C           8.4235   -0.6713   -0.0616 C.ar    1  UNL1       -0.0405
     30 H           2.5773    1.5265    0.0849 H       1  UNL1        0.1550
     31 H          -0.1073   -1.1035    0.4013 H       1  UNL1        0.0637
     32 H          -2.4577   -0.6475    0.4896 H       1  UNL1        0.0655
     33 H          -4.2843   -0.1009   -0.3176 H       1  UNL1        0.0723
     34 H          -4.2610    0.0841    1.4589 H       1  UNL1        0.0723
     35 H          -6.0364    1.8048   -0.3493 H       1  UNL1        0.0640
     36 H          -5.1874    2.7241    1.4863 H       1  UNL1        0.2100
     37 H          -6.3444   -0.5981    1.5436 H       1  UNL1        0.0453
     38 H          -7.8115    0.2976    0.9165 H       1  UNL1        0.0453
     39 H          -7.7276   -2.1802    0.6757 H       1  UNL1        0.0391
     40 H          -8.4263   -1.8031   -0.9852 H       1  UNL1        0.0391
     41 H          -6.9345   -2.8222   -0.7800 H       1  UNL1        0.0391
     42 H          -6.1886    0.4825   -2.1341 H       1  UNL1        0.0391
     43 H          -7.3764   -0.8129   -2.4293 H       1  UNL1        0.0391
     44 H          -7.9196    0.5856   -1.4789 H       1  UNL1        0.0391
     45 H          -1.6150    3.4857    0.1640 H       1  UNL1        0.0655
     46 H           0.7410    3.0331    0.0752 H       1  UNL1        0.0637
     47 H           2.2490   -3.9038    0.4727 H       1  UNL1        0.0843
     48 H           6.6891   -2.5609    0.1556 H       1  UNL1        0.1536
     49 H           5.6087    1.0494   -0.0358 H       1  UNL1        0.0636
     50 H           7.1003    2.9151   -0.2389 H       1  UNL1        0.0618
     51 H           9.5180    2.5029   -0.3338 H       1  UNL1        0.0618
     52 H          10.3670    0.1928   -0.2194 H       1  UNL1        0.0618
     53 H           8.8653   -1.6727   -0.0158 H       1  UNL1        0.0636
@<TRIPOS>BOND
     1     1     2    1
     2     2     3   ar
     3     3     4   ar
     4     4     5   ar
     5     5     6    1
     6     6     7    1
     7     7     8    1
     8     8     9    1
     9     8    10    1
    10    10    11    1
    11    11    12    1
    12    11    13    1
    13     5    14   ar
    14    14    15   ar
    15     1    16    1
    16    16    17   ar
    17    17    18   ar
    18    18    19   ar
    19    19    20    1
    20    19    21   ar
    21    21    22   ar
    22    21    23    1
    23    23    24    1
    24    24    25   ar
    25    25    26   ar
    26    26    27   ar
    27    27    28   ar
    28    28    29   ar
    29    15     2   ar
    30    22    16   ar
    31    29    24   ar
    32     1    30    1
    33     3    31    1
    34     4    32    1
    35     7    33    1
    36     7    34    1
    37     8    35    1
    38     9    36    1
    39    10    37    1
    40    10    38    1
    41    12    39    1
    42    12    40    1
    43    12    41    1
    44    13    42    1
    45    13    43    1
    46    13    44    1
    47    14    45    1
    48    15    46    1
    49    18    47    1
    50    23    48    1
    51    25    49    1
    52    26    50    1
    53    27    51    1
    54    28    52    1
    55    29    53    1
