@<TRIPOS>MOLECULE
*****
 55 59 0 0 0
SMALL
GASTEIGER

@<TRIPOS>ATOM
      1 C           1.9994   -2.1859    0.2124 C.3     1  UNL1        0.0232
      2 C           3.1165   -1.5177    0.9508 C.3     1  UNL1        0.0145
      3 N           3.7536   -0.4254    0.2702 N.3     1  UNL1       -0.2984
      4 C           4.7559    0.2021    1.1553 C.3     1  UNL1        0.0115
      5 C           5.1083    1.5257    0.5165 C.3     1  UNL1        0.0087
      6 N           4.8242    1.4946   -0.9073 N.3     1  UNL1       -0.3136
      7 C           5.2360    0.2398   -1.4955 C.3     1  UNL1        0.0087
      8 C           4.5941   -0.9535   -0.8412 C.3     1  UNL1        0.0115
      9 N           0.8728   -1.3200   -0.0669 N.pl3   1  UNL1       -0.3272
     10 C           0.6844   -0.1392   -0.8253 C.ar    1  UNL1        0.1335
     11 C          -0.5101    0.5338   -0.9463 C.ar    1  UNL1        0.0878
     12 C          -0.6271    1.6666   -1.7094 C.ar    1  UNL1        0.2331
     13 O          -1.8562    2.0262   -1.6002 O.2     1  UNL1       -0.4360
     14 C          -2.5771    1.2409   -0.8346 C.ar    1  UNL1        0.1460
     15 C          -1.7299    0.2418   -0.3806 C.ar    1  UNL1        0.0406
     16 C          -2.2311   -0.7876    0.4933 C.ar    1  UNL1       -0.0135
     17 C          -2.8138   -1.9800    0.0396 C.ar    1  UNL1       -0.0539
     18 C          -3.3173   -2.9818    0.8188 C.ar    1  UNL1       -0.0612
     19 C          -3.2327   -2.7777    2.1663 C.ar    1  UNL1       -0.0617
     20 C          -2.6877   -1.6585    2.7523 C.ar    1  UNL1       -0.0612
     21 C          -2.2032   -0.6970    1.8931 C.ar    1  UNL1       -0.0539
     22 C          -3.9726    1.4562   -0.5748 C.ar    1  UNL1        0.0180
     23 C          -4.2582    2.6747    0.0557 C.ar    1  UNL1       -0.0511
     24 C          -5.5685    3.0194    0.3699 C.ar    1  UNL1       -0.0611
     25 C          -6.5418    2.1146    0.0327 C.ar    1  UNL1       -0.0617
     26 C          -6.3366    0.8948   -0.5895 C.ar    1  UNL1       -0.0611
     27 C          -5.0161    0.6079   -0.8765 C.ar    1  UNL1       -0.0511
     28 N           0.4686    2.1145   -2.3477 N.ar    1  UNL1       -0.2005
     29 C           1.6400    1.4506   -2.2257 C.ar    1  UNL1        0.1219
     30 N           1.7270    0.3483   -1.4757 N.ar    1  UNL1       -0.2201
     31 H           2.4412   -2.5811   -0.7403 H       1  UNL1        0.0474
     32 H           1.6507   -3.0742    0.7565 H       1  UNL1        0.0474
     33 H           3.9096   -2.2520    1.1825 H       1  UNL1        0.0442
     34 H           2.7876   -1.1279    1.9501 H       1  UNL1        0.0442
     35 H           5.6030   -0.4947    1.2263 H       1  UNL1        0.0439
     36 H           4.3184    0.3195    2.1534 H       1  UNL1        0.0439
     37 H           6.1924    1.6847    0.6624 H       1  UNL1        0.0437
     38 H           4.5783    2.3883    0.9446 H       1  UNL1        0.0437
     39 H           5.3848    2.2516   -1.3429 H       1  UNL1        0.1220
     40 H           4.8888    0.2447   -2.5574 H       1  UNL1        0.0437
     41 H           6.3475    0.2008   -1.4485 H       1  UNL1        0.0437
     42 H           5.3934   -1.5821   -0.4014 H       1  UNL1        0.0439
     43 H           4.0144   -1.5684   -1.5301 H       1  UNL1        0.0439
     44 H           0.0179   -1.6334    0.3858 H       1  UNL1        0.1475
     45 H          -2.8537   -2.0871   -1.0562 H       1  UNL1        0.0624
     46 H          -3.7462   -3.8624    0.3868 H       1  UNL1        0.0618
     47 H          -3.6113   -3.5290    2.8622 H       1  UNL1        0.0618
     48 H          -2.5949   -1.4449    3.8001 H       1  UNL1        0.0618
     49 H          -1.7474    0.2364    2.2446 H       1  UNL1        0.0624
     50 H          -3.4810    3.4053    0.3288 H       1  UNL1        0.0625
     51 H          -5.8194    3.9535    0.8566 H       1  UNL1        0.0618
     52 H          -7.5874    2.3591    0.2683 H       1  UNL1        0.0618
     53 H          -7.1372    0.2240   -0.8305 H       1  UNL1        0.0618
     54 H          -4.7371   -0.3231   -1.3648 H       1  UNL1        0.0625
     55 H           2.4867    1.8642   -2.7667 H       1  UNL1        0.1049
@<TRIPOS>BOND
     1     1     2    1
     2     2     3    1
     3     3     4    1
     4     4     5    1
     5     5     6    1
     6     6     7    1
     7     7     8    1
     8     1     9    1
     9     9    10    1
    10    10    11   ar
    11    11    12   ar
    12    12    13   ar
    13    13    14   ar
    14    14    15   ar
    15    15    16    1
    16    16    17   ar
    17    17    18   ar
    18    18    19   ar
    19    19    20   ar
    20    20    21   ar
    21    14    22    1
    22    22    23   ar
    23    23    24   ar
    24    24    25   ar
    25    25    26   ar
    26    26    27   ar
    27    12    28   ar
    28    28    29   ar
    29    29    30   ar
    30     8     3    1
    31    30    10   ar
    32    15    11   ar
    33    21    16   ar
    34    27    22   ar
    35     1    31    1
    36     1    32    1
    37     2    33    1
    38     2    34    1
    39     4    35    1
    40     4    36    1
    41     5    37    1
    42     5    38    1
    43     6    39    1
    44     7    40    1
    45     7    41    1
    46     8    42    1
    47     8    43    1
    48     9    44    1
    49    17    45    1
    50    18    46    1
    51    19    47    1
    52    20    48    1
    53    21    49    1
    54    23    50    1
    55    24    51    1
    56    25    52    1
    57    26    53    1
    58    27    54    1
    59    29    55    1
