@<TRIPOS>MOLECULE
*****
 50 53 0 0 0
SMALL
GASTEIGER

@<TRIPOS>ATOM
      1 C           8.0328    1.3586    0.7751 C.3     1  UNL1        0.0790
      2 O           7.4117    0.3765   -0.0135 O.3     1  UNL1       -0.4913
      3 C           6.0204    0.2318   -0.0624 C.ar    1  UNL1        0.1650
      4 C           5.1967    1.0608    0.6733 C.ar    1  UNL1        0.0267
      5 C           3.8171    0.9127    0.6210 C.ar    1  UNL1        0.1421
      6 O           3.0091    1.6829    1.3067 O.2     1  UNL1       -0.4620
      7 C           1.7042    1.5354    1.2511 C.ar    1  UNL1        0.1038
      8 C           1.0883    0.5733    0.4788 C.ar    1  UNL1        0.0643
      9 C          -0.3622    0.4154    0.4218 C.ar    1  UNL1       -0.0112
     10 C          -0.9601    0.2422   -0.8086 C.ar    1  UNL1       -0.0521
     11 C          -2.3413    0.0861   -0.9271 C.ar    1  UNL1       -0.0401
     12 C          -3.1323    0.1036    0.1972 C.ar    1  UNL1        0.0297
     13 N          -4.5380   -0.0525    0.0590 N.pl3   1  UNL1       -0.3299
     14 C          -5.2316   -0.1279   -1.1861 C.3     1  UNL1        0.0122
     15 C          -6.6074    0.5044   -1.1679 C.3     1  UNL1       -0.0372
     16 C          -7.4439    0.0795   -0.0056 C.3     1  UNL1       -0.0502
     17 C          -6.6792   -0.7374    1.0040 C.3     1  UNL1       -0.0372
     18 C          -5.3226   -0.1466    1.2820 C.3     1  UNL1        0.0122
     19 C          -2.5307    0.2769    1.4247 C.ar    1  UNL1       -0.0401
     20 C          -1.1557    0.4326    1.5458 C.ar    1  UNL1       -0.0521
     21 C           1.8969   -0.2607   -0.2603 C.ar    1  UNL1        0.2003
     22 O           1.4659   -1.1641   -0.9931 O.2     1  UNL1       -0.2864
     23 C           3.2793   -0.0703   -0.1728 C.ar    1  UNL1        0.0682
     24 C           4.1336   -0.8875   -0.9001 C.ar    1  UNL1       -0.0019
     25 C           5.5028   -0.7616   -0.8659 C.ar    1  UNL1        0.1624
     26 O           6.3505   -1.5902   -1.6025 O.3     1  UNL1       -0.4914
     27 C           5.8700   -2.6152   -2.4341 C.3     1  UNL1        0.0790
     28 H           7.5478    2.3394    0.7136 H       1  UNL1        0.0660
     29 H           9.0872    1.4890    0.4060 H       1  UNL1        0.0660
     30 H           8.1294    1.0110    1.8439 H       1  UNL1        0.0660
     31 H           5.6381    1.8170    1.2826 H       1  UNL1        0.0692
     32 H           1.0468    2.1887    1.8312 H       1  UNL1        0.1037
     33 H          -0.3482    0.2253   -1.7176 H       1  UNL1        0.0624
     34 H          -2.7065   -0.0434   -1.9269 H       1  UNL1        0.0636
     35 H          -5.2793   -1.1679   -1.6091 H       1  UNL1        0.0464
     36 H          -4.6595    0.4651   -1.9593 H       1  UNL1        0.0464
     37 H          -7.1253    0.1610   -2.1045 H       1  UNL1        0.0280
     38 H          -6.5162    1.6097   -1.2603 H       1  UNL1        0.0280
     39 H          -8.3737   -0.4214   -0.2953 H       1  UNL1        0.0266
     40 H          -7.7525    1.0225    0.5329 H       1  UNL1        0.0266
     41 H          -6.5947   -1.7937    0.6656 H       1  UNL1        0.0280
     42 H          -7.2297   -0.7598    1.9674 H       1  UNL1        0.0280
     43 H          -5.4424    0.8506    1.7051 H       1  UNL1        0.0464
     44 H          -4.7918   -0.8707    1.9374 H       1  UNL1        0.0464
     45 H          -3.1708    0.2893    2.2989 H       1  UNL1        0.0636
     46 H          -0.7292    0.5643    2.5152 H       1  UNL1        0.0624
     47 H           3.6906   -1.6579   -1.5213 H       1  UNL1        0.0663
     48 H           5.4229   -2.2382   -3.3709 H       1  UNL1        0.0660
     49 H           5.0361   -3.1444   -1.8890 H       1  UNL1        0.0660
     50 H           6.6468   -3.3940   -2.6057 H       1  UNL1        0.0660
@<TRIPOS>BOND
     1     1     2    1
     2     2     3    1
     3     3     4   ar
     4     4     5   ar
     5     5     6   ar
     6     6     7   ar
     7     7     8   ar
     8     8     9    1
     9     9    10   ar
    10    10    11   ar
    11    11    12   ar
    12    12    13    1
    13    13    14    1
    14    14    15    1
    15    15    16    1
    16    16    17    1
    17    17    18    1
    18    12    19   ar
    19    19    20   ar
    20     8    21   ar
    21    21    22    2
    22    21    23   ar
    23    23    24   ar
    24    24    25   ar
    25    25    26    1
    26    26    27    1
    27    25     3   ar
    28    23     5   ar
    29    20     9   ar
    30    18    13    1
    31     1    28    1
    32     1    29    1
    33     1    30    1
    34     4    31    1
    35     7    32    1
    36    10    33    1
    37    11    34    1
    38    14    35    1
    39    14    36    1
    40    15    37    1
    41    15    38    1
    42    16    39    1
    43    16    40    1
    44    17    41    1
    45    17    42    1
    46    18    43    1
    47    18    44    1
    48    19    45    1
    49    20    46    1
    50    24    47    1
    51    27    48    1
    52    27    49    1
    53    27    50    1
