
     RDKit          3D

 50 53  0  0  0  0  0  0  0  0999 V2000
    8.0328    1.3586    0.7751 C   0  0  0  0  0  0  0  0  0  0  0  0
    7.4117    0.3765   -0.0135 O   0  0  0  0  0  0  0  0  0  0  0  0
    6.0204    0.2318   -0.0624 C   0  0  0  0  0  0  0  0  0  0  0  0
    5.1967    1.0608    0.6733 C   0  0  0  0  0  0  0  0  0  0  0  0
    3.8171    0.9127    0.6210 C   0  0  0  0  0  0  0  0  0  0  0  0
    3.0091    1.6829    1.3067 O   0  0  0  0  0  0  0  0  0  0  0  0
    1.7042    1.5354    1.2511 C   0  0  0  0  0  0  0  0  0  0  0  0
    1.0883    0.5733    0.4788 C   0  0  0  0  0  0  0  0  0  0  0  0
   -0.3622    0.4154    0.4218 C   0  0  0  0  0  0  0  0  0  0  0  0
   -0.9601    0.2422   -0.8086 C   0  0  0  0  0  0  0  0  0  0  0  0
   -2.3413    0.0861   -0.9271 C   0  0  0  0  0  0  0  0  0  0  0  0
   -3.1323    0.1036    0.1972 C   0  0  0  0  0  0  0  0  0  0  0  0
   -4.5380   -0.0525    0.0590 N   0  0  0  0  0  0  0  0  0  0  0  0
   -5.2316   -0.1279   -1.1861 C   0  0  0  0  0  0  0  0  0  0  0  0
   -6.6074    0.5044   -1.1679 C   0  0  0  0  0  0  0  0  0  0  0  0
   -7.4439    0.0795   -0.0056 C   0  0  0  0  0  0  0  0  0  0  0  0
   -6.6792   -0.7374    1.0040 C   0  0  0  0  0  0  0  0  0  0  0  0
   -5.3226   -0.1466    1.2820 C   0  0  0  0  0  0  0  0  0  0  0  0
   -2.5307    0.2769    1.4247 C   0  0  0  0  0  0  0  0  0  0  0  0
   -1.1557    0.4326    1.5458 C   0  0  0  0  0  0  0  0  0  0  0  0
    1.8969   -0.2607   -0.2603 C   0  0  0  0  0  0  0  0  0  0  0  0
    1.4659   -1.1641   -0.9931 O   0  0  0  0  0  0  0  0  0  0  0  0
    3.2793   -0.0703   -0.1728 C   0  0  0  0  0  0  0  0  0  0  0  0
    4.1336   -0.8875   -0.9001 C   0  0  0  0  0  0  0  0  0  0  0  0
    5.5028   -0.7616   -0.8659 C   0  0  0  0  0  0  0  0  0  0  0  0
    6.3505   -1.5902   -1.6025 O   0  0  0  0  0  0  0  0  0  0  0  0
    5.8700   -2.6152   -2.4341 C   0  0  0  0  0  0  0  0  0  0  0  0
    7.5478    2.3394    0.7136 H   0  0  0  0  0  0  0  0  0  0  0  0
    9.0872    1.4890    0.4060 H   0  0  0  0  0  0  0  0  0  0  0  0
    8.1294    1.0110    1.8439 H   0  0  0  0  0  0  0  0  0  0  0  0
    5.6381    1.8170    1.2826 H   0  0  0  0  0  0  0  0  0  0  0  0
    1.0468    2.1887    1.8312 H   0  0  0  0  0  0  0  0  0  0  0  0
   -0.3482    0.2253   -1.7176 H   0  0  0  0  0  0  0  0  0  0  0  0
   -2.7065   -0.0434   -1.9269 H   0  0  0  0  0  0  0  0  0  0  0  0
   -5.2793   -1.1679   -1.6091 H   0  0  0  0  0  0  0  0  0  0  0  0
   -4.6595    0.4651   -1.9593 H   0  0  0  0  0  0  0  0  0  0  0  0
   -7.1253    0.1610   -2.1045 H   0  0  0  0  0  0  0  0  0  0  0  0
   -6.5162    1.6097   -1.2603 H   0  0  0  0  0  0  0  0  0  0  0  0
   -8.3737   -0.4214   -0.2953 H   0  0  0  0  0  0  0  0  0  0  0  0
   -7.7525    1.0225    0.5329 H   0  0  0  0  0  0  0  0  0  0  0  0
   -6.5947   -1.7937    0.6656 H   0  0  0  0  0  0  0  0  0  0  0  0
   -7.2297   -0.7598    1.9674 H   0  0  0  0  0  0  0  0  0  0  0  0
   -5.4424    0.8506    1.7051 H   0  0  0  0  0  0  0  0  0  0  0  0
   -4.7918   -0.8707    1.9374 H   0  0  0  0  0  0  0  0  0  0  0  0
   -3.1708    0.2893    2.2989 H   0  0  0  0  0  0  0  0  0  0  0  0
   -0.7292    0.5643    2.5152 H   0  0  0  0  0  0  0  0  0  0  0  0
    3.6906   -1.6579   -1.5213 H   0  0  0  0  0  0  0  0  0  0  0  0
    5.4229   -2.2382   -3.3709 H   0  0  0  0  0  0  0  0  0  0  0  0
    5.0361   -3.1444   -1.8890 H   0  0  0  0  0  0  0  0  0  0  0  0
    6.6468   -3.3940   -2.6057 H   0  0  0  0  0  0  0  0  0  0  0  0
  1  2  1  0
  2  3  1  0
  3  4  2  0
  4  5  1  0
  5  6  1  0
  6  7  1  0
  7  8  2  0
  8  9  1  0
  9 10  2  0
 10 11  1  0
 11 12  2  0
 12 13  1  0
 13 14  1  0
 14 15  1  0
 15 16  1  0
 16 17  1  0
 17 18  1  0
 12 19  1  0
 19 20  2  0
  8 21  1  0
 21 22  2  0
 21 23  1  0
 23 24  1  0
 24 25  2  0
 25 26  1  0
 26 27  1  0
 25  3  1  0
 23  5  2  0
 20  9  1  0
 18 13  1  0
  1 28  1  0
  1 29  1  0
  1 30  1  0
  4 31  1  0
  7 32  1  0
 10 33  1  0
 11 34  1  0
 14 35  1  0
 14 36  1  0
 15 37  1  0
 15 38  1  0
 16 39  1  0
 16 40  1  0
 17 41  1  0
 17 42  1  0
 18 43  1  0
 18 44  1  0
 19 45  1  0
 20 46  1  0
 24 47  1  0
 27 48  1  0
 27 49  1  0
 27 50  1  0
M  END
$$$$
