@<TRIPOS>MOLECULE
*****
 11 10 0 0 0
SMALL
GASTEIGER

@<TRIPOS>ATOM
      1 C          -1.3339    0.3524    0.0987 C.3     1  UNL1       -0.0552
      2 C          -0.2621   -0.4283    0.7915 C.3     1  UNL1        0.0420
      3 C           1.0678   -0.3048    0.1382 C.2     1  UNL1        0.3044
      4 O           1.9763    0.5957    0.7191 O.3     1  UNL1       -0.4806
      5 O           1.3890   -0.9635   -0.8854 O.2     1  UNL1       -0.2510
      6 H          -1.4225    1.3930    0.5054 H       1  UNL1        0.0235
      7 H          -1.2014    0.4552   -1.0010 H       1  UNL1        0.0235
      8 H          -2.3220   -0.1241    0.3020 H       1  UNL1        0.0235
      9 H          -0.2325   -0.1477    1.8601 H       1  UNL1        0.0375
     10 H          -0.5997   -1.5016    0.7865 H       1  UNL1        0.0375
     11 H           2.9410    0.6737    0.3945 H       1  UNL1        0.2951
@<TRIPOS>BOND
     1     1     2    1
     2     2     3    1
     3     3     4    1
     4     3     5    2
     5     1     6    1
     6     1     7    1
     7     1     8    1
     8     2     9    1
     9     2    10    1
    10     4    11    1
