@<TRIPOS>MOLECULE
*****
 30 31 0 0 0
SMALL
GASTEIGER

@<TRIPOS>ATOM
      1 N           5.4731   -0.2384   -1.4948 N.am    1  UNL1       -0.3253
      2 C           5.1019   -0.1225   -0.1411 C.2     1  UNL1        0.2415
      3 O           5.9821   -0.0553    0.7387 O.2     1  UNL1       -0.2704
      4 C           3.7094   -0.0797    0.2495 C.ar    1  UNL1        0.0367
      5 C           3.3108    0.0340    1.5762 C.ar    1  UNL1       -0.0462
      6 C           1.9597    0.0722    1.9140 C.ar    1  UNL1       -0.0192
      7 C           0.9805   -0.0016    0.9456 C.ar    1  UNL1        0.1206
      8 O          -0.3505    0.0409    1.3377 O.3     1  UNL1       -0.4902
      9 C          -1.4258   -0.0257    0.4447 C.3     1  UNL1        0.1074
     10 C          -2.7027    0.0540    1.2896 C.3     1  UNL1        0.0583
     11 N          -3.8639   -0.0102    0.4206 N.ar    1  UNL1       -0.3336
     12 C          -4.4539    1.0743   -0.1203 C.ar    1  UNL1        0.0241
     13 C          -5.5125    0.6156   -0.8769 C.ar    1  UNL1        0.0454
     14 N          -5.5344   -0.7155   -0.7750 N.ar    1  UNL1       -0.2441
     15 C          -4.5137   -1.0991    0.0279 C.ar    1  UNL1        0.0960
     16 C           1.3871   -0.1140   -0.3652 C.ar    1  UNL1       -0.0192
     17 C           2.7318   -0.1527   -0.7112 C.ar    1  UNL1       -0.0462
     18 H           6.2440    0.3616   -1.9003 H       1  UNL1        0.1453
     19 H           5.0339   -0.8974   -2.1712 H       1  UNL1        0.1453
     20 H           4.0886    0.0909    2.3254 H       1  UNL1        0.0626
     21 H           1.6643    0.1618    2.9618 H       1  UNL1        0.0654
     22 H          -1.4452   -0.9446   -0.1681 H       1  UNL1        0.0714
     23 H          -1.4026    0.8240   -0.2631 H       1  UNL1        0.0714
     24 H          -2.7251    1.0164    1.8375 H       1  UNL1        0.0526
     25 H          -2.7161   -0.7425    2.0514 H       1  UNL1        0.0526
     26 H          -4.1404    2.1010    0.0246 H       1  UNL1        0.0825
     27 H          -6.1640    1.2910   -1.4277 H       1  UNL1        0.0845
     28 H          -4.3079   -2.1251    0.2742 H       1  UNL1        0.1029
     29 H           0.6128   -0.1713   -1.1195 H       1  UNL1        0.0654
     30 H           2.9783   -0.2423   -1.7620 H       1  UNL1        0.0626
@<TRIPOS>BOND
     1     1     2   am
     2     2     3    2
     3     2     4    1
     4     4     5   ar
     5     5     6   ar
     6     6     7   ar
     7     7     8    1
     8     8     9    1
     9     9    10    1
    10    10    11    1
    11    11    12   ar
    12    12    13   ar
    13    13    14   ar
    14    14    15   ar
    15     7    16   ar
    16    16    17   ar
    17    17     4   ar
    18    15    11   ar
    19     1    18    1
    20     1    19    1
    21     5    20    1
    22     6    21    1
    23     9    22    1
    24     9    23    1
    25    10    24    1
    26    10    25    1
    27    12    26    1
    28    13    27    1
    29    15    28    1
    30    16    29    1
    31    17    30    1
