
     RDKit          3D

 30 31  0  0  0  0  0  0  0  0999 V2000
    5.4731   -0.2384   -1.4948 N   0  0  0  0  0  0  0  0  0  0  0  0
    5.1019   -0.1225   -0.1411 C   0  0  0  0  0  0  0  0  0  0  0  0
    5.9821   -0.0553    0.7387 O   0  0  0  0  0  0  0  0  0  0  0  0
    3.7094   -0.0797    0.2495 C   0  0  0  0  0  0  0  0  0  0  0  0
    3.3108    0.0340    1.5762 C   0  0  0  0  0  0  0  0  0  0  0  0
    1.9597    0.0722    1.9140 C   0  0  0  0  0  0  0  0  0  0  0  0
    0.9805   -0.0016    0.9456 C   0  0  0  0  0  0  0  0  0  0  0  0
   -0.3505    0.0409    1.3377 O   0  0  0  0  0  0  0  0  0  0  0  0
   -1.4258   -0.0257    0.4447 C   0  0  0  0  0  0  0  0  0  0  0  0
   -2.7027    0.0540    1.2896 C   0  0  0  0  0  0  0  0  0  0  0  0
   -3.8639   -0.0102    0.4206 N   0  0  0  0  0  0  0  0  0  0  0  0
   -4.4539    1.0743   -0.1203 C   0  0  0  0  0  0  0  0  0  0  0  0
   -5.5125    0.6156   -0.8769 C   0  0  0  0  0  0  0  0  0  0  0  0
   -5.5344   -0.7155   -0.7750 N   0  0  0  0  0  0  0  0  0  0  0  0
   -4.5137   -1.0991    0.0279 C   0  0  0  0  0  0  0  0  0  0  0  0
    1.3871   -0.1140   -0.3652 C   0  0  0  0  0  0  0  0  0  0  0  0
    2.7318   -0.1527   -0.7112 C   0  0  0  0  0  0  0  0  0  0  0  0
    6.2440    0.3616   -1.9003 H   0  0  0  0  0  0  0  0  0  0  0  0
    5.0339   -0.8974   -2.1712 H   0  0  0  0  0  0  0  0  0  0  0  0
    4.0886    0.0909    2.3254 H   0  0  0  0  0  0  0  0  0  0  0  0
    1.6643    0.1618    2.9618 H   0  0  0  0  0  0  0  0  0  0  0  0
   -1.4452   -0.9446   -0.1681 H   0  0  0  0  0  0  0  0  0  0  0  0
   -1.4026    0.8240   -0.2631 H   0  0  0  0  0  0  0  0  0  0  0  0
   -2.7251    1.0164    1.8375 H   0  0  0  0  0  0  0  0  0  0  0  0
   -2.7161   -0.7425    2.0514 H   0  0  0  0  0  0  0  0  0  0  0  0
   -4.1404    2.1010    0.0246 H   0  0  0  0  0  0  0  0  0  0  0  0
   -6.1640    1.2910   -1.4277 H   0  0  0  0  0  0  0  0  0  0  0  0
   -4.3079   -2.1251    0.2742 H   0  0  0  0  0  0  0  0  0  0  0  0
    0.6128   -0.1713   -1.1195 H   0  0  0  0  0  0  0  0  0  0  0  0
    2.9783   -0.2423   -1.7620 H   0  0  0  0  0  0  0  0  0  0  0  0
  1  2  1  0
  2  3  2  0
  2  4  1  0
  4  5  2  0
  5  6  1  0
  6  7  2  0
  7  8  1  0
  8  9  1  0
  9 10  1  0
 10 11  1  0
 11 12  1  0
 12 13  2  0
 13 14  1  0
 14 15  2  0
  7 16  1  0
 16 17  2  0
 17  4  1  0
 15 11  1  0
  1 18  1  0
  1 19  1  0
  5 20  1  0
  6 21  1  0
  9 22  1  0
  9 23  1  0
 10 24  1  0
 10 25  1  0
 12 26  1  0
 13 27  1  0
 15 28  1  0
 16 29  1  0
 17 30  1  0
M  END
$$$$
