@<TRIPOS>MOLECULE
*****
 23 24 0 0 0
SMALL
GASTEIGER

@<TRIPOS>ATOM
      1 CL         -1.1286   -0.0366    2.8115 Cl      1  UNL1       -0.0801
      2 C          -1.8558   -0.1432    1.2252 C.ar    1  UNL1        0.0787
      3 C          -3.0497   -0.8186    0.9758 C.ar    1  UNL1       -0.0401
      4 C          -3.5789   -0.8710   -0.2967 C.ar    1  UNL1       -0.0588
      5 C          -2.9325   -0.2514   -1.3559 C.ar    1  UNL1       -0.0401
      6 C          -1.7330    0.4396   -1.1634 C.ar    1  UNL1        0.0787
      7 CL         -0.8762    1.2388   -2.4637 Cl      1  UNL1       -0.0801
      8 C          -1.2559    0.4549    0.1340 C.ar    1  UNL1        0.1283
      9 N          -0.0259    1.1574    0.3598 N.pl3   1  UNL1       -0.2037
     10 C           1.2884    0.5756    0.2803 C.cat   1  UNL1        0.3695
     11 N           1.4489   -0.6934    0.4685 N.2     1  UNL1       -0.1140
     12 C           2.8513   -1.0445    0.3390 C.3     1  UNL1        0.1328
     13 C           3.3767    0.1287   -0.4442 C.3     1  UNL1        0.0920
     14 N           2.5094    1.2055    0.0129 N.pl3   1  UNL1       -0.2350
     15 H          -3.5257   -1.2908    1.8312 H       1  UNL1        0.0633
     16 H          -4.5035   -1.3977   -0.4729 H       1  UNL1        0.0618
     17 H          -3.3375   -0.2810   -2.3796 H       1  UNL1        0.0633
     18 H          -0.1010    2.1848    0.6038 H       1  UNL1        0.2513
     19 H           2.9509   -1.9859   -0.2155 H       1  UNL1        0.0723
     20 H           3.2688   -1.1099    1.3596 H       1  UNL1        0.0723
     21 H           3.1520   -0.0465   -1.5238 H       1  UNL1        0.0665
     22 H           4.4349    0.3531   -0.2437 H       1  UNL1        0.0665
     23 H           2.6230    2.2322    0.1578 H       1  UNL1        0.2445
@<TRIPOS>BOND
     1     1     2    1
     2     2     3   ar
     3     3     4   ar
     4     4     5   ar
     5     5     6   ar
     6     6     7    1
     7     6     8   ar
     8     8     9    1
     9     9    10    1
    10    10    11    2
    11    11    12    1
    12    12    13    1
    13    13    14    1
    14     8     2   ar
    15    14    10    1
    16     3    15    1
    17     4    16    1
    18     5    17    1
    19     9    18    1
    20    12    19    1
    21    12    20    1
    22    13    21    1
    23    13    22    1
    24    14    23    1
