@<TRIPOS>MOLECULE
*****
 69 71 0 0 0
SMALL
GASTEIGER

@<TRIPOS>ATOM
      1 C           8.2152    0.4802   -1.2591 C.3     1  UNL1       -0.0130
      2 N           7.6978   -0.3762   -0.2549 N.3     1  UNL1       -0.3069
      3 C           8.4384   -1.5424    0.0525 C.3     1  UNL1       -0.0130
      4 C           6.2937   -0.4163   -0.0764 C.3     1  UNL1        0.0141
      5 C           5.7214    0.8688    0.4844 C.3     1  UNL1        0.0275
      6 N           4.2959    0.7783    0.6484 N.am    1  UNL1       -0.2987
      7 C           3.3978    1.1656   -0.4188 C.3     1  UNL1        0.0305
      8 C           2.0955    1.7133    0.1325 C.3     1  UNL1        0.0308
      9 N           1.1632    0.6326    0.4984 N.am    1  UNL1       -0.2955
     10 C          -0.0876    0.7576   -0.1025 C.2     1  UNL1        0.2490
     11 O          -0.2939    1.8026   -0.8257 O.2     1  UNL1       -0.2699
     12 C          -1.1867   -0.2212    0.0391 C.ar    1  UNL1        0.0657
     13 C          -1.0573   -1.5244    0.3016 C.ar    1  UNL1       -0.0370
     14 C          -2.1053   -2.3706    0.3474 C.ar    1  UNL1       -0.0023
     15 C          -2.3021   -3.7986    0.5964 C.3     1  UNL1       -0.0064
     16 C          -0.9684   -4.4199    0.8316 C.3     1  UNL1       -0.0556
     17 C          -3.1624   -4.0694    1.8135 C.3     1  UNL1       -0.0556
     18 C          -3.0433   -4.3911   -0.5908 C.3     1  UNL1       -0.0556
     19 S          -3.5172   -1.2821   -0.0186 S.2     1  UNL1       -0.0771
     20 C          -2.4788    0.2420   -0.1943 C.ar    1  UNL1        0.0853
     21 N          -3.0295    1.4795   -0.4887 N.am    1  UNL1       -0.2629
     22 C          -4.4328    1.6707   -0.7003 C.2     1  UNL1        0.3085
     23 O          -5.1540    0.6610   -0.6071 O.2     1  UNL1       -0.2521
     24 N          -4.9965    2.9217   -0.9994 N.am    1  UNL1       -0.2678
     25 C          -6.3573    3.2045   -1.2218 C.ar    1  UNL1        0.0546
     26 C          -7.3871    2.3072   -1.1934 C.ar    1  UNL1       -0.0389
     27 C          -8.7223    2.6858   -1.4273 C.ar    1  UNL1       -0.0585
     28 C          -8.9997    3.9997   -1.6924 C.ar    1  UNL1       -0.0419
     29 C          -7.9792    4.9469   -1.7306 C.ar    1  UNL1        0.0610
     30 CL         -8.3674    6.6161   -2.0716 Cl      1  UNL1       -0.0820
     31 C          -6.7000    4.5264   -1.4967 C.ar    1  UNL1        0.0804
     32 CL         -5.4480    5.7643   -1.5578 Cl      1  UNL1       -0.0801
     33 C           1.5128   -0.3970    1.4376 C.3     1  UNL1        0.0233
     34 C           2.4693    0.2630    2.4736 C.3     1  UNL1        0.0399
     35 C           3.8518    0.2853    1.9277 C.2     1  UNL1        0.2171
     36 O           4.7253   -0.1910    2.6964 O.2     1  UNL1       -0.2755
     37 H           8.3285   -0.0421   -2.2550 H       1  UNL1        0.0391
     38 H           7.6807    1.4148   -1.4053 H       1  UNL1        0.0391
     39 H           9.2799    0.7240   -0.9723 H       1  UNL1        0.0391
     40 H           9.3339   -1.6169   -0.6290 H       1  UNL1        0.0391
     41 H           8.8896   -1.3936    1.0705 H       1  UNL1        0.0391
     42 H           7.8869   -2.4959   -0.0023 H       1  UNL1        0.0391
     43 H           5.8155   -0.5711   -1.0851 H       1  UNL1        0.0442
     44 H           6.0104   -1.2722    0.5449 H       1  UNL1        0.0442
     45 H           5.9286    1.7153   -0.2017 H       1  UNL1        0.0477
     46 H           6.1526    1.0365    1.4972 H       1  UNL1        0.0477
     47 H           3.8431    1.9254   -1.0562 H       1  UNL1        0.0480
     48 H           3.1497    0.2757   -1.0229 H       1  UNL1        0.0480
     49 H           2.2507    2.4303    0.9576 H       1  UNL1        0.0480
     50 H           1.6287    2.2713   -0.6960 H       1  UNL1        0.0480
     51 H          -0.0422   -2.0140    0.4608 H       1  UNL1        0.0634
     52 H          -1.1148   -5.5386    0.7618 H       1  UNL1        0.0238
     53 H          -0.2115   -4.1826    0.0574 H       1  UNL1        0.0238
     54 H          -0.6294   -4.2218    1.8490 H       1  UNL1        0.0238
     55 H          -4.1493   -4.5116    1.5568 H       1  UNL1        0.0238
     56 H          -3.4017   -3.0648    2.2696 H       1  UNL1        0.0238
     57 H          -2.6672   -4.7251    2.5318 H       1  UNL1        0.0238
     58 H          -4.1467   -4.1795   -0.4755 H       1  UNL1        0.0238
     59 H          -2.7577   -3.9147   -1.5513 H       1  UNL1        0.0238
     60 H          -2.8536   -5.4625   -0.6351 H       1  UNL1        0.0238
     61 H          -2.4513    2.3253   -0.5641 H       1  UNL1        0.1569
     62 H          -4.2899    3.7279   -1.0581 H       1  UNL1        0.1564
     63 H          -7.1992    1.2858   -0.9916 H       1  UNL1        0.0637
     64 H          -9.5070    1.9419   -1.3962 H       1  UNL1        0.0619
     65 H         -10.0072    4.3627   -1.8816 H       1  UNL1        0.0633
     66 H           2.0107   -1.2551    0.9927 H       1  UNL1        0.0469
     67 H           0.6138   -0.6431    2.0419 H       1  UNL1        0.0469
     68 H           2.4244   -0.3831    3.3550 H       1  UNL1        0.0374
     69 H           2.1000    1.2790    2.6077 H       1  UNL1        0.0374
@<TRIPOS>BOND
     1     1     2    1
     2     2     3    1
     3     2     4    1
     4     4     5    1
     5     5     6    1
     6     6     7    1
     7     7     8    1
     8     8     9    1
     9     9    10   am
    10    10    11    2
    11    10    12    1
    12    12    13   ar
    13    13    14   ar
    14    14    15    1
    15    15    16    1
    16    15    17    1
    17    15    18    1
    18    14    19   ar
    19    19    20   ar
    20    20    21    1
    21    21    22   am
    22    22    23    2
    23    22    24   am
    24    24    25    1
    25    25    26   ar
    26    26    27   ar
    27    27    28   ar
    28    28    29   ar
    29    29    30    1
    30    29    31   ar
    31    31    32    1
    32     9    33    1
    33    33    34    1
    34    34    35    1
    35    35    36    2
    36    35     6   am
    37    20    12   ar
    38    31    25   ar
    39     1    37    1
    40     1    38    1
    41     1    39    1
    42     3    40    1
    43     3    41    1
    44     3    42    1
    45     4    43    1
    46     4    44    1
    47     5    45    1
    48     5    46    1
    49     7    47    1
    50     7    48    1
    51     8    49    1
    52     8    50    1
    53    13    51    1
    54    16    52    1
    55    16    53    1
    56    16    54    1
    57    17    55    1
    58    17    56    1
    59    17    57    1
    60    18    58    1
    61    18    59    1
    62    18    60    1
    63    21    61    1
    64    24    62    1
    65    26    63    1
    66    27    64    1
    67    28    65    1
    68    33    66    1
    69    33    67    1
    70    34    68    1
    71    34    69    1
