
     RDKit          3D

 69 71  0  0  0  0  0  0  0  0999 V2000
    8.2152    0.4802   -1.2591 C   0  0  0  0  0  0  0  0  0  0  0  0
    7.6978   -0.3762   -0.2549 N   0  0  0  0  0  0  0  0  0  0  0  0
    8.4384   -1.5424    0.0525 C   0  0  0  0  0  0  0  0  0  0  0  0
    6.2937   -0.4163   -0.0764 C   0  0  0  0  0  0  0  0  0  0  0  0
    5.7214    0.8688    0.4844 C   0  0  0  0  0  0  0  0  0  0  0  0
    4.2959    0.7783    0.6484 N   0  0  0  0  0  0  0  0  0  0  0  0
    3.3978    1.1656   -0.4188 C   0  0  0  0  0  0  0  0  0  0  0  0
    2.0955    1.7133    0.1325 C   0  0  0  0  0  0  0  0  0  0  0  0
    1.1632    0.6326    0.4984 N   0  0  0  0  0  0  0  0  0  0  0  0
   -0.0876    0.7576   -0.1025 C   0  0  0  0  0  0  0  0  0  0  0  0
   -0.2939    1.8026   -0.8257 O   0  0  0  0  0  0  0  0  0  0  0  0
   -1.1867   -0.2212    0.0391 C   0  0  0  0  0  0  0  0  0  0  0  0
   -1.0573   -1.5244    0.3016 C   0  0  0  0  0  0  0  0  0  0  0  0
   -2.1053   -2.3706    0.3474 C   0  0  0  0  0  0  0  0  0  0  0  0
   -2.3021   -3.7986    0.5964 C   0  0  0  0  0  0  0  0  0  0  0  0
   -0.9684   -4.4199    0.8316 C   0  0  0  0  0  0  0  0  0  0  0  0
   -3.1624   -4.0694    1.8135 C   0  0  0  0  0  0  0  0  0  0  0  0
   -3.0433   -4.3911   -0.5908 C   0  0  0  0  0  0  0  0  0  0  0  0
   -3.5172   -1.2821   -0.0186 S   0  0  0  0  0  0  0  0  0  0  0  0
   -2.4788    0.2420   -0.1943 C   0  0  0  0  0  0  0  0  0  0  0  0
   -3.0295    1.4795   -0.4887 N   0  0  0  0  0  0  0  0  0  0  0  0
   -4.4328    1.6707   -0.7003 C   0  0  0  0  0  0  0  0  0  0  0  0
   -5.1540    0.6610   -0.6071 O   0  0  0  0  0  0  0  0  0  0  0  0
   -4.9965    2.9217   -0.9994 N   0  0  0  0  0  0  0  0  0  0  0  0
   -6.3573    3.2045   -1.2218 C   0  0  0  0  0  0  0  0  0  0  0  0
   -7.3871    2.3072   -1.1934 C   0  0  0  0  0  0  0  0  0  0  0  0
   -8.7223    2.6858   -1.4273 C   0  0  0  0  0  0  0  0  0  0  0  0
   -8.9997    3.9997   -1.6924 C   0  0  0  0  0  0  0  0  0  0  0  0
   -7.9792    4.9469   -1.7306 C   0  0  0  0  0  0  0  0  0  0  0  0
   -8.3674    6.6161   -2.0716 Cl  0  0  0  0  0  0  0  0  0  0  0  0
   -6.7000    4.5264   -1.4967 C   0  0  0  0  0  0  0  0  0  0  0  0
   -5.4480    5.7643   -1.5578 Cl  0  0  0  0  0  0  0  0  0  0  0  0
    1.5128   -0.3970    1.4376 C   0  0  0  0  0  0  0  0  0  0  0  0
    2.4693    0.2630    2.4736 C   0  0  0  0  0  0  0  0  0  0  0  0
    3.8518    0.2853    1.9277 C   0  0  0  0  0  0  0  0  0  0  0  0
    4.7253   -0.1910    2.6964 O   0  0  0  0  0  0  0  0  0  0  0  0
    8.3285   -0.0421   -2.2550 H   0  0  0  0  0  0  0  0  0  0  0  0
    7.6807    1.4148   -1.4053 H   0  0  0  0  0  0  0  0  0  0  0  0
    9.2799    0.7240   -0.9723 H   0  0  0  0  0  0  0  0  0  0  0  0
    9.3339   -1.6169   -0.6290 H   0  0  0  0  0  0  0  0  0  0  0  0
    8.8896   -1.3936    1.0705 H   0  0  0  0  0  0  0  0  0  0  0  0
    7.8869   -2.4959   -0.0023 H   0  0  0  0  0  0  0  0  0  0  0  0
    5.8155   -0.5711   -1.0851 H   0  0  0  0  0  0  0  0  0  0  0  0
    6.0104   -1.2722    0.5449 H   0  0  0  0  0  0  0  0  0  0  0  0
    5.9286    1.7153   -0.2017 H   0  0  0  0  0  0  0  0  0  0  0  0
    6.1526    1.0365    1.4972 H   0  0  0  0  0  0  0  0  0  0  0  0
    3.8431    1.9254   -1.0562 H   0  0  0  0  0  0  0  0  0  0  0  0
    3.1497    0.2757   -1.0229 H   0  0  0  0  0  0  0  0  0  0  0  0
    2.2507    2.4303    0.9576 H   0  0  0  0  0  0  0  0  0  0  0  0
    1.6287    2.2713   -0.6960 H   0  0  0  0  0  0  0  0  0  0  0  0
   -0.0422   -2.0140    0.4608 H   0  0  0  0  0  0  0  0  0  0  0  0
   -1.1148   -5.5386    0.7618 H   0  0  0  0  0  0  0  0  0  0  0  0
   -0.2115   -4.1826    0.0574 H   0  0  0  0  0  0  0  0  0  0  0  0
   -0.6294   -4.2218    1.8490 H   0  0  0  0  0  0  0  0  0  0  0  0
   -4.1493   -4.5116    1.5568 H   0  0  0  0  0  0  0  0  0  0  0  0
   -3.4017   -3.0648    2.2696 H   0  0  0  0  0  0  0  0  0  0  0  0
   -2.6672   -4.7251    2.5318 H   0  0  0  0  0  0  0  0  0  0  0  0
   -4.1467   -4.1795   -0.4755 H   0  0  0  0  0  0  0  0  0  0  0  0
   -2.7577   -3.9147   -1.5513 H   0  0  0  0  0  0  0  0  0  0  0  0
   -2.8536   -5.4625   -0.6351 H   0  0  0  0  0  0  0  0  0  0  0  0
   -2.4513    2.3253   -0.5641 H   0  0  0  0  0  0  0  0  0  0  0  0
   -4.2899    3.7279   -1.0581 H   0  0  0  0  0  0  0  0  0  0  0  0
   -7.1992    1.2858   -0.9916 H   0  0  0  0  0  0  0  0  0  0  0  0
   -9.5070    1.9419   -1.3962 H   0  0  0  0  0  0  0  0  0  0  0  0
  -10.0072    4.3627   -1.8816 H   0  0  0  0  0  0  0  0  0  0  0  0
    2.0107   -1.2551    0.9927 H   0  0  0  0  0  0  0  0  0  0  0  0
    0.6138   -0.6431    2.0419 H   0  0  0  0  0  0  0  0  0  0  0  0
    2.4244   -0.3831    3.3550 H   0  0  0  0  0  0  0  0  0  0  0  0
    2.1000    1.2790    2.6077 H   0  0  0  0  0  0  0  0  0  0  0  0
  1  2  1  0
  2  3  1  0
  2  4  1  0
  4  5  1  0
  5  6  1  0
  6  7  1  0
  7  8  1  0
  8  9  1  0
  9 10  1  0
 10 11  2  0
 10 12  1  0
 12 13  1  0
 13 14  2  0
 14 15  1  0
 15 16  1  0
 15 17  1  0
 15 18  1  0
 14 19  1  0
 19 20  1  0
 20 21  1  0
 21 22  1  0
 22 23  2  0
 22 24  1  0
 24 25  1  0
 25 26  2  0
 26 27  1  0
 27 28  2  0
 28 29  1  0
 29 30  1  0
 29 31  2  0
 31 32  1  0
  9 33  1  0
 33 34  1  0
 34 35  1  0
 35 36  2  0
 35  6  1  0
 20 12  2  0
 31 25  1  0
  1 37  1  0
  1 38  1  0
  1 39  1  0
  3 40  1  0
  3 41  1  0
  3 42  1  0
  4 43  1  0
  4 44  1  0
  5 45  1  0
  5 46  1  0
  7 47  1  0
  7 48  1  0
  8 49  1  0
  8 50  1  0
 13 51  1  0
 16 52  1  0
 16 53  1  0
 16 54  1  0
 17 55  1  0
 17 56  1  0
 17 57  1  0
 18 58  1  0
 18 59  1  0
 18 60  1  0
 21 61  1  0
 24 62  1  0
 26 63  1  0
 27 64  1  0
 28 65  1  0
 33 66  1  0
 33 67  1  0
 34 68  1  0
 34 69  1  0
M  END
$$$$
