@<TRIPOS>MOLECULE
*****
 63 67 0 0 0
SMALL
GASTEIGER

@<TRIPOS>ATOM
      1 C          11.2320    0.1934    1.4523 C.3     1  UNL1        0.0805
      2 O           9.8815    0.4711    1.6092 O.3     1  UNL1       -0.4786
      3 C           8.8684    0.2321    0.7031 C.ar    1  UNL1        0.2332
      4 C           7.6028    0.6515    1.1685 C.ar    1  UNL1        0.0899
      5 N           6.5297    0.4794    0.3975 N.ar    1  UNL1       -0.2435
      6 C           6.6187   -0.0974   -0.8420 C.ar    1  UNL1        0.1439
      7 C           5.3688   -0.2659   -1.6225 C.2     1  UNL1        0.2681
      8 O           5.4842   -0.6576   -2.7895 O.2     1  UNL1       -0.2681
      9 N           4.1334    0.0186   -1.0119 N.am    1  UNL1       -0.2802
     10 C           2.8720   -0.0638   -1.6360 C.ar    1  UNL1        0.0343
     11 C           2.7396   -0.1899   -3.0249 C.ar    1  UNL1       -0.0370
     12 C           1.4331   -0.2303   -3.5233 C.ar    1  UNL1       -0.0172
     13 C           0.3045   -0.1643   -2.7937 C.ar    1  UNL1        0.1344
     14 C           0.4416   -0.0430   -1.4047 C.ar    1  UNL1        0.0287
     15 C           1.7311    0.0050   -0.8690 C.ar    1  UNL1       -0.0312
     16 C          -0.6998    0.0463   -0.4853 C.3     1  UNL1        0.1264
     17 C          -0.6460    1.4486    0.1372 C.3     1  UNL1        0.0155
     18 C          -0.1280    1.4668    1.5315 C.3     1  UNL1        0.0953
     19 O          -0.4241    0.3517    2.3148 O.2     1  UNL1       -0.4658
     20 C          -0.5237   -0.9018    1.7652 C.2     1  UNL1        0.2763
     21 N          -0.4996   -2.1090    2.5186 N.pl3   1  UNL1       -0.3134
     22 N          -0.6475   -1.0000    0.4894 N.2     1  UNL1       -0.2205
     23 C          -2.0234   -0.0599   -1.1632 C.ar    1  UNL1        0.0310
     24 C          -3.2009   -0.0289   -0.4060 C.ar    1  UNL1       -0.0185
     25 C          -4.4356   -0.0898   -1.0002 C.ar    1  UNL1        0.1140
     26 C          -5.6374   -0.0874   -0.2023 C.1     1  UNL1       -0.0459
     27 C          -6.6473   -0.0857    0.4867 C.1     1  UNL1       -0.0895
     28 C          -7.9053   -0.0957    1.3165 C.3     1  UNL1        0.0239
     29 C          -8.8990   -0.9595    0.6534 C.3     1  UNL1       -0.0491
     30 C          -7.5750   -0.6366    2.6973 C.3     1  UNL1       -0.0491
     31 C          -8.3004    1.3609    1.4224 C.3     1  UNL1       -0.0491
     32 N          -4.4879   -0.1798   -2.3525 N.ar    1  UNL1       -0.2430
     33 C          -3.3697   -0.2143   -3.0759 C.ar    1  UNL1        0.0716
     34 C          -2.0943   -0.1608   -2.5397 C.ar    1  UNL1        0.1523
     35 O          -0.9731   -0.2126   -3.2946 O.3     1  UNL1       -0.4538
     36 C           7.8358   -0.4871   -1.2558 C.ar    1  UNL1        0.0619
     37 N           8.9396   -0.3218   -0.4929 N.ar    1  UNL1       -0.2178
     38 H          11.4488   -0.8829    1.3499 H       1  UNL1        0.0660
     39 H          11.7746    0.6351    2.3374 H       1  UNL1        0.0660
     40 H          11.5738    0.7400    0.5296 H       1  UNL1        0.0660
     41 H           7.4903    1.1109    2.1222 H       1  UNL1        0.0884
     42 H           4.1852    0.3183    0.0081 H       1  UNL1        0.1552
     43 H           3.5675   -0.2699   -3.6859 H       1  UNL1        0.0637
     44 H           1.2723   -0.3348   -4.6241 H       1  UNL1        0.0655
     45 H           1.8767    0.1199    0.1993 H       1  UNL1        0.0641
     46 H          -1.6867    1.8789    0.1890 H       1  UNL1        0.0328
     47 H          -0.0908    2.1714   -0.4861 H       1  UNL1        0.0328
     48 H           0.9566    1.6730    1.6373 H       1  UNL1        0.0698
     49 H          -0.6025    2.3536    2.0712 H       1  UNL1        0.0698
     50 H          -1.2606   -2.3016    3.1980 H       1  UNL1        0.1466
     51 H           0.2605   -2.7865    2.3891 H       1  UNL1        0.1466
     52 H          -3.1875    0.0242    0.6786 H       1  UNL1        0.0650
     53 H          -9.8880   -0.9991    1.2094 H       1  UNL1        0.0244
     54 H          -8.6101   -2.0004    0.5375 H       1  UNL1        0.0244
     55 H          -9.1651   -0.4574   -0.3248 H       1  UNL1        0.0244
     56 H          -6.5049   -1.0115    2.6359 H       1  UNL1        0.0244
     57 H          -7.5656    0.1466    3.4543 H       1  UNL1        0.0244
     58 H          -8.2436   -1.4886    2.9122 H       1  UNL1        0.0244
     59 H          -7.4401    1.9270    1.8961 H       1  UNL1        0.0244
     60 H          -8.4626    1.8123    0.4310 H       1  UNL1        0.0244
     61 H          -9.1528    1.4805    2.1029 H       1  UNL1        0.0244
     62 H          -3.4135   -0.2707   -4.1734 H       1  UNL1        0.0868
     63 H           7.9697   -0.9708   -2.2544 H       1  UNL1        0.0854
@<TRIPOS>BOND
     1     1     2    1
     2     2     3    1
     3     3     4   ar
     4     4     5   ar
     5     5     6   ar
     6     6     7    1
     7     7     8    2
     8     7     9   am
     9     9    10    1
    10    10    11   ar
    11    11    12   ar
    12    12    13   ar
    13    13    14   ar
    14    14    15   ar
    15    14    16    1
    16    16    17    1
    17    17    18    1
    18    18    19    1
    19    19    20    1
    20    20    21    1
    21    20    22    2
    22    16    23    1
    23    23    24   ar
    24    24    25   ar
    25    25    26    1
    26    26    27    3
    27    27    28    1
    28    28    29    1
    29    28    30    1
    30    28    31    1
    31    25    32   ar
    32    32    33   ar
    33    33    34   ar
    34    34    35    1
    35     6    36   ar
    36    36    37   ar
    37    37     3   ar
    38    15    10   ar
    39    22    16    1
    40    34    23   ar
    41    35    13    1
    42     1    38    1
    43     1    39    1
    44     1    40    1
    45     4    41    1
    46     9    42    1
    47    11    43    1
    48    12    44    1
    49    15    45    1
    50    17    46    1
    51    17    47    1
    52    18    48    1
    53    18    49    1
    54    21    50    1
    55    21    51    1
    56    24    52    1
    57    29    53    1
    58    29    54    1
    59    29    55    1
    60    30    56    1
    61    30    57    1
    62    30    58    1
    63    31    59    1
    64    31    60    1
    65    31    61    1
    66    33    62    1
    67    36    63    1
