@<TRIPOS>MOLECULE
*****
 69 73 0 0 0
SMALL
GASTEIGER

@<TRIPOS>ATOM
      1 C           9.0841   -1.8112   -3.2586 C.3     1  UNL1        0.0788
      2 O           7.9317   -1.0169   -3.0512 O.3     1  UNL1       -0.4950
      3 C           7.5901   -0.4788   -1.8319 C.ar    1  UNL1        0.1221
      4 C           6.4481    0.2815   -1.7317 C.ar    1  UNL1       -0.0192
      5 C           6.0280    0.8639   -0.5345 C.ar    1  UNL1       -0.0456
      6 C           6.7657    0.6891    0.6155 C.ar    1  UNL1        0.0429
      7 C           6.3283    1.2768    1.7660 C.ar    1  UNL1        0.1391
      8 O           5.2257    2.0395    1.9751 O.3     1  UNL1       -0.4538
      9 C           3.9033    1.8571    1.8837 C.ar    1  UNL1        0.1466
     10 C           3.2463    1.0015    2.7682 C.ar    1  UNL1       -0.0146
     11 C           1.8888    0.8277    2.6679 C.ar    1  UNL1       -0.0180
     12 C           1.1449    1.4715    1.7191 C.ar    1  UNL1        0.1253
     13 N          -0.2880    1.2728    1.6309 N.am    1  UNL1       -0.2662
     14 C          -0.7470    0.2300    0.7978 C.2     1  UNL1        0.2563
     15 O           0.1493   -0.4569    0.1810 O.2     1  UNL1       -0.2696
     16 C          -2.1458   -0.0974    0.6050 C.ar    1  UNL1        0.1235
     17 C          -3.3058    0.3527    1.1751 C.ar    1  UNL1        0.0508
     18 C          -3.3902    1.3721    2.2653 C.3     1  UNL1       -0.0218
     19 N          -4.3855   -0.2755    0.6156 N.ar    1  UNL1       -0.2776
     20 C          -5.7568   -0.0575    0.9581 C.3     1  UNL1        0.0687
     21 C          -6.4338    1.0234    0.1474 C.3     1  UNL1        0.0798
     22 C          -5.7994    2.3687    0.2749 C.3     1  UNL1       -0.0346
     23 C          -6.5958    0.6810   -1.2983 C.3     1  UNL1       -0.0346
     24 O          -7.7390    1.1405    0.6821 O.3     1  UNL1       -0.3873
     25 N          -3.9361   -1.1120   -0.2935 N.ar    1  UNL1       -0.2163
     26 C          -4.6741   -1.9971   -1.1490 C.ar    1  UNL1        0.0674
     27 C          -4.6048   -1.7938   -2.5035 C.ar    1  UNL1       -0.0362
     28 C          -5.2914   -2.6120   -3.3672 C.ar    1  UNL1       -0.0598
     29 C          -6.0541   -3.6421   -2.8774 C.ar    1  UNL1       -0.0616
     30 C          -6.1136   -3.8342   -1.5057 C.ar    1  UNL1       -0.0598
     31 C          -5.4315   -3.0218   -0.6437 C.ar    1  UNL1       -0.0362
     32 C          -2.5947   -1.0412   -0.3369 C.ar    1  UNL1        0.2843
     33 O          -1.8332   -1.6963   -1.0845 O.2     1  UNL1       -0.2650
     34 N           1.7953    2.2865    0.8822 N.ar    1  UNL1       -0.2365
     35 C           3.1235    2.4870    0.9436 C.ar    1  UNL1        0.0719
     36 C           7.1490    1.0529    2.8942 C.ar    1  UNL1       -0.0006
     37 C           8.2801    0.3009    2.7944 C.ar    1  UNL1        0.0318
     38 N           8.6499   -0.2468    1.6354 N.ar    1  UNL1       -0.2546
     39 C           7.9218   -0.0815    0.5083 C.ar    1  UNL1        0.0779
     40 C           8.3325   -0.6567   -0.6849 C.ar    1  UNL1        0.0061
     41 H           9.3680   -1.8594   -4.3276 H       1  UNL1        0.0660
     42 H           9.9336   -1.2591   -2.7591 H       1  UNL1        0.0660
     43 H           9.0227   -2.8007   -2.7682 H       1  UNL1        0.0660
     44 H           5.8514    0.4371   -2.6060 H       1  UNL1        0.0654
     45 H           5.1409    1.4569   -0.4882 H       1  UNL1        0.0626
     46 H           3.8390    0.4981    3.5128 H       1  UNL1        0.0656
     47 H           1.4299    0.1431    3.3909 H       1  UNL1        0.0653
     48 H          -0.9116    1.8956    2.1673 H       1  UNL1        0.1566
     49 H          -4.4539    1.4140    2.6465 H       1  UNL1        0.0293
     50 H          -3.1467    2.3862    1.9309 H       1  UNL1        0.0293
     51 H          -2.8078    1.0972    3.1598 H       1  UNL1        0.0293
     52 H          -5.9320    0.1750    2.0390 H       1  UNL1        0.0537
     53 H          -6.3841   -0.9783    0.7880 H       1  UNL1        0.0537
     54 H          -6.3720    3.0647   -0.3720 H       1  UNL1        0.0258
     55 H          -4.7523    2.3953   -0.0895 H       1  UNL1        0.0258
     56 H          -5.8995    2.7854    1.3117 H       1  UNL1        0.0258
     57 H          -7.3811    1.3777   -1.7098 H       1  UNL1        0.0258
     58 H          -7.0373   -0.3340   -1.3770 H       1  UNL1        0.0258
     59 H          -5.7073    0.8360   -1.9095 H       1  UNL1        0.0258
     60 H          -8.1992    0.3014    0.4247 H       1  UNL1        0.2102
     61 H          -4.0156   -0.9942   -2.9294 H       1  UNL1        0.0639
     62 H          -5.2357   -2.4491   -4.4488 H       1  UNL1        0.0618
     63 H          -6.6004   -4.2948   -3.5410 H       1  UNL1        0.0618
     64 H          -6.7187   -4.6504   -1.1315 H       1  UNL1        0.0618
     65 H          -5.4745   -3.1689    0.4378 H       1  UNL1        0.0639
     66 H           3.6290    3.1636    0.2427 H       1  UNL1        0.0868
     67 H           6.8176    1.5151    3.8263 H       1  UNL1        0.0670
     68 H           8.8893    0.1479    3.6809 H       1  UNL1        0.0831
     69 H           9.2424   -1.2486   -0.7122 H       1  UNL1        0.0676
@<TRIPOS>BOND
     1     1     2    1
     2     2     3    1
     3     3     4   ar
     4     4     5   ar
     5     5     6   ar
     6     6     7   ar
     7     7     8    1
     8     8     9    1
     9     9    10   ar
    10    10    11   ar
    11    11    12   ar
    12    12    13    1
    13    13    14   am
    14    14    15    2
    15    14    16    1
    16    16    17   ar
    17    17    18    1
    18    17    19   ar
    19    19    20    1
    20    20    21    1
    21    21    22    1
    22    21    23    1
    23    21    24    1
    24    19    25   ar
    25    25    26    1
    26    26    27   ar
    27    27    28   ar
    28    28    29   ar
    29    29    30   ar
    30    30    31   ar
    31    25    32   ar
    32    32    33    2
    33    12    34   ar
    34    34    35   ar
    35     7    36   ar
    36    36    37   ar
    37    37    38   ar
    38    38    39   ar
    39    39    40   ar
    40    40     3   ar
    41    39     6   ar
    42    35     9   ar
    43    32    16   ar
    44    31    26   ar
    45     1    41    1
    46     1    42    1
    47     1    43    1
    48     4    44    1
    49     5    45    1
    50    10    46    1
    51    11    47    1
    52    13    48    1
    53    18    49    1
    54    18    50    1
    55    18    51    1
    56    20    52    1
    57    20    53    1
    58    22    54    1
    59    22    55    1
    60    22    56    1
    61    23    57    1
    62    23    58    1
    63    23    59    1
    64    24    60    1
    65    27    61    1
    66    28    62    1
    67    29    63    1
    68    30    64    1
    69    31    65    1
    70    35    66    1
    71    36    67    1
    72    37    68    1
    73    40    69    1
