
     RDKit          3D

 69 73  0  0  0  0  0  0  0  0999 V2000
    9.0841   -1.8112   -3.2586 C   0  0  0  0  0  0  0  0  0  0  0  0
    7.9317   -1.0169   -3.0512 O   0  0  0  0  0  0  0  0  0  0  0  0
    7.5901   -0.4788   -1.8319 C   0  0  0  0  0  0  0  0  0  0  0  0
    6.4481    0.2815   -1.7317 C   0  0  0  0  0  0  0  0  0  0  0  0
    6.0280    0.8639   -0.5345 C   0  0  0  0  0  0  0  0  0  0  0  0
    6.7657    0.6891    0.6155 C   0  0  0  0  0  0  0  0  0  0  0  0
    6.3283    1.2768    1.7660 C   0  0  0  0  0  0  0  0  0  0  0  0
    5.2257    2.0395    1.9751 O   0  0  0  0  0  0  0  0  0  0  0  0
    3.9033    1.8571    1.8837 C   0  0  0  0  0  0  0  0  0  0  0  0
    3.2463    1.0015    2.7682 C   0  0  0  0  0  0  0  0  0  0  0  0
    1.8888    0.8277    2.6679 C   0  0  0  0  0  0  0  0  0  0  0  0
    1.1449    1.4715    1.7191 C   0  0  0  0  0  0  0  0  0  0  0  0
   -0.2880    1.2728    1.6309 N   0  0  0  0  0  0  0  0  0  0  0  0
   -0.7470    0.2300    0.7978 C   0  0  0  0  0  0  0  0  0  0  0  0
    0.1493   -0.4569    0.1810 O   0  0  0  0  0  0  0  0  0  0  0  0
   -2.1458   -0.0974    0.6050 C   0  0  0  0  0  0  0  0  0  0  0  0
   -3.3058    0.3527    1.1751 C   0  0  0  0  0  0  0  0  0  0  0  0
   -3.3902    1.3721    2.2653 C   0  0  0  0  0  0  0  0  0  0  0  0
   -4.3855   -0.2755    0.6156 N   0  0  0  0  0  0  0  0  0  0  0  0
   -5.7568   -0.0575    0.9581 C   0  0  0  0  0  0  0  0  0  0  0  0
   -6.4338    1.0234    0.1474 C   0  0  0  0  0  0  0  0  0  0  0  0
   -5.7994    2.3687    0.2749 C   0  0  0  0  0  0  0  0  0  0  0  0
   -6.5958    0.6810   -1.2983 C   0  0  0  0  0  0  0  0  0  0  0  0
   -7.7390    1.1405    0.6821 O   0  0  0  0  0  0  0  0  0  0  0  0
   -3.9361   -1.1120   -0.2935 N   0  0  0  0  0  0  0  0  0  0  0  0
   -4.6741   -1.9971   -1.1490 C   0  0  0  0  0  0  0  0  0  0  0  0
   -4.6048   -1.7938   -2.5035 C   0  0  0  0  0  0  0  0  0  0  0  0
   -5.2914   -2.6120   -3.3672 C   0  0  0  0  0  0  0  0  0  0  0  0
   -6.0541   -3.6421   -2.8774 C   0  0  0  0  0  0  0  0  0  0  0  0
   -6.1136   -3.8342   -1.5057 C   0  0  0  0  0  0  0  0  0  0  0  0
   -5.4315   -3.0218   -0.6437 C   0  0  0  0  0  0  0  0  0  0  0  0
   -2.5947   -1.0412   -0.3369 C   0  0  0  0  0  0  0  0  0  0  0  0
   -1.8332   -1.6963   -1.0845 O   0  0  0  0  0  0  0  0  0  0  0  0
    1.7953    2.2865    0.8822 N   0  0  0  0  0  0  0  0  0  0  0  0
    3.1235    2.4870    0.9436 C   0  0  0  0  0  0  0  0  0  0  0  0
    7.1490    1.0529    2.8942 C   0  0  0  0  0  0  0  0  0  0  0  0
    8.2801    0.3009    2.7944 C   0  0  0  0  0  0  0  0  0  0  0  0
    8.6499   -0.2468    1.6354 N   0  0  0  0  0  0  0  0  0  0  0  0
    7.9218   -0.0815    0.5083 C   0  0  0  0  0  0  0  0  0  0  0  0
    8.3325   -0.6567   -0.6849 C   0  0  0  0  0  0  0  0  0  0  0  0
    9.3680   -1.8594   -4.3276 H   0  0  0  0  0  0  0  0  0  0  0  0
    9.9336   -1.2591   -2.7591 H   0  0  0  0  0  0  0  0  0  0  0  0
    9.0227   -2.8007   -2.7682 H   0  0  0  0  0  0  0  0  0  0  0  0
    5.8514    0.4371   -2.6060 H   0  0  0  0  0  0  0  0  0  0  0  0
    5.1409    1.4569   -0.4882 H   0  0  0  0  0  0  0  0  0  0  0  0
    3.8390    0.4981    3.5128 H   0  0  0  0  0  0  0  0  0  0  0  0
    1.4299    0.1431    3.3909 H   0  0  0  0  0  0  0  0  0  0  0  0
   -0.9116    1.8956    2.1673 H   0  0  0  0  0  0  0  0  0  0  0  0
   -4.4539    1.4140    2.6465 H   0  0  0  0  0  0  0  0  0  0  0  0
   -3.1467    2.3862    1.9309 H   0  0  0  0  0  0  0  0  0  0  0  0
   -2.8078    1.0972    3.1598 H   0  0  0  0  0  0  0  0  0  0  0  0
   -5.9320    0.1750    2.0390 H   0  0  0  0  0  0  0  0  0  0  0  0
   -6.3841   -0.9783    0.7880 H   0  0  0  0  0  0  0  0  0  0  0  0
   -6.3720    3.0647   -0.3720 H   0  0  0  0  0  0  0  0  0  0  0  0
   -4.7523    2.3953   -0.0895 H   0  0  0  0  0  0  0  0  0  0  0  0
   -5.8995    2.7854    1.3117 H   0  0  0  0  0  0  0  0  0  0  0  0
   -7.3811    1.3777   -1.7098 H   0  0  0  0  0  0  0  0  0  0  0  0
   -7.0373   -0.3340   -1.3770 H   0  0  0  0  0  0  0  0  0  0  0  0
   -5.7073    0.8360   -1.9095 H   0  0  0  0  0  0  0  0  0  0  0  0
   -8.1992    0.3014    0.4247 H   0  0  0  0  0  0  0  0  0  0  0  0
   -4.0156   -0.9942   -2.9294 H   0  0  0  0  0  0  0  0  0  0  0  0
   -5.2357   -2.4491   -4.4488 H   0  0  0  0  0  0  0  0  0  0  0  0
   -6.6004   -4.2948   -3.5410 H   0  0  0  0  0  0  0  0  0  0  0  0
   -6.7187   -4.6504   -1.1315 H   0  0  0  0  0  0  0  0  0  0  0  0
   -5.4745   -3.1689    0.4378 H   0  0  0  0  0  0  0  0  0  0  0  0
    3.6290    3.1636    0.2427 H   0  0  0  0  0  0  0  0  0  0  0  0
    6.8176    1.5151    3.8263 H   0  0  0  0  0  0  0  0  0  0  0  0
    8.8893    0.1479    3.6809 H   0  0  0  0  0  0  0  0  0  0  0  0
    9.2424   -1.2486   -0.7122 H   0  0  0  0  0  0  0  0  0  0  0  0
  1  2  1  0
  2  3  1  0
  3  4  2  0
  4  5  1  0
  5  6  2  0
  6  7  1  0
  7  8  1  0
  8  9  1  0
  9 10  2  0
 10 11  1  0
 11 12  2  0
 12 13  1  0
 13 14  1  0
 14 15  2  0
 14 16  1  0
 16 17  2  0
 17 18  1  0
 17 19  1  0
 19 20  1  0
 20 21  1  0
 21 22  1  0
 21 23  1  0
 21 24  1  0
 19 25  1  0
 25 26  1  0
 26 27  2  0
 27 28  1  0
 28 29  2  0
 29 30  1  0
 30 31  2  0
 25 32  1  0
 32 33  2  0
 12 34  1  0
 34 35  2  0
  7 36  2  0
 36 37  1  0
 37 38  2  0
 38 39  1  0
 39 40  2  0
 40  3  1  0
 39  6  1  0
 35  9  1  0
 32 16  1  0
 31 26  1  0
  1 41  1  0
  1 42  1  0
  1 43  1  0
  4 44  1  0
  5 45  1  0
 10 46  1  0
 11 47  1  0
 13 48  1  0
 18 49  1  0
 18 50  1  0
 18 51  1  0
 20 52  1  0
 20 53  1  0
 22 54  1  0
 22 55  1  0
 22 56  1  0
 23 57  1  0
 23 58  1  0
 23 59  1  0
 24 60  1  0
 27 61  1  0
 28 62  1  0
 29 63  1  0
 30 64  1  0
 31 65  1  0
 35 66  1  0
 36 67  1  0
 37 68  1  0
 40 69  1  0
M  END
$$$$
