@<TRIPOS>MOLECULE
*****
 47 49 0 0 0
SMALL
GASTEIGER

@<TRIPOS>ATOM
      1 C          -0.2713   -1.3944    3.8736 C.3     1  UNL1        0.0789
      2 O          -1.1578   -0.8546    2.8810 O.3     1  UNL1       -0.4932
      3 C          -0.7234   -0.8219    1.5622 C.ar    1  UNL1        0.1417
      4 C           0.5032   -1.2767    1.1594 C.ar    1  UNL1       -0.0146
      5 C           0.9270   -1.2374   -0.1724 C.ar    1  UNL1       -0.0388
      6 C           2.2464   -1.7448   -0.5556 C.3     1  UNL1        0.0024
      7 C           3.3621   -0.7985   -0.3654 C.ar    1  UNL1        0.0146
      8 C           4.2111   -0.9677    0.7351 C.ar    1  UNL1        0.0379
      9 N           5.2293   -0.1149    0.9277 N.ar    1  UNL1       -0.2227
     10 C           5.4874    0.9166    0.1059 C.ar    1  UNL1        0.2142
     11 N           6.5978    1.7897    0.3764 N.pl3   1  UNL1       -0.3274
     12 N           4.6906    1.0953   -0.9484 N.ar    1  UNL1       -0.1999
     13 C           3.6573    0.2651   -1.1814 C.ar    1  UNL1        0.1247
     14 N           2.8076    0.4665   -2.3266 N.pl3   1  UNL1       -0.3428
     15 C           0.0514   -0.7139   -1.0949 C.ar    1  UNL1       -0.0488
     16 C          -1.2142   -0.2340   -0.7430 C.ar    1  UNL1        0.0051
     17 C          -1.5619   -0.3068    0.5969 C.ar    1  UNL1        0.0777
     18 N          -2.8496    0.1823    0.9486 N.pl3   1  UNL1       -0.3272
     19 C          -3.7986    0.7400    0.0147 C.3     1  UNL1        0.1095
     20 C          -4.0799    2.1928    0.3969 C.3     1  UNL1       -0.0350
     21 C          -5.1288    0.0176    0.0684 C.3     1  UNL1        0.1173
     22 F          -5.7068    0.0834    1.3040 F       1  UNL1       -0.2464
     23 C          -3.2930    0.7530   -1.3701 C.2     1  UNL1        0.1295
     24 F          -4.1227    1.2633   -2.3273 F       1  UNL1       -0.2075
     25 C          -2.1160    0.3139   -1.7423 C.2     1  UNL1       -0.0082
     26 C          -1.6955    0.3682   -3.1574 C.3     1  UNL1       -0.0366
     27 H          -0.6209   -1.1876    4.8872 H       1  UNL1        0.0660
     28 H           0.7421   -0.9149    3.7781 H       1  UNL1        0.0660
     29 H          -0.1599   -2.4909    3.7645 H       1  UNL1        0.0660
     30 H           1.1934   -1.6883    1.8787 H       1  UNL1        0.0657
     31 H           2.5036   -2.7203   -0.0584 H       1  UNL1        0.0363
     32 H           2.2392   -2.0037   -1.6553 H       1  UNL1        0.0363
     33 H           4.0008   -1.8060    1.4023 H       1  UNL1        0.0834
     34 H           6.5081    2.7967    0.2182 H       1  UNL1        0.1452
     35 H           7.4672    1.3829    0.7258 H       1  UNL1        0.1452
     36 H           1.9944    1.1369   -2.2542 H       1  UNL1        0.1437
     37 H           2.9623   -0.0179   -3.2125 H       1  UNL1        0.1437
     38 H           0.2841   -0.6449   -2.1520 H       1  UNL1        0.0627
     39 H          -3.1233    0.1328    1.9500 H       1  UNL1        0.1472
     40 H          -3.2884    2.7967   -0.0890 H       1  UNL1        0.0255
     41 H          -4.0603    2.2418    1.4864 H       1  UNL1        0.0255
     42 H          -5.0787    2.4404   -0.0087 H       1  UNL1        0.0255
     43 H          -4.9525   -1.0362   -0.2427 H       1  UNL1        0.0640
     44 H          -5.8491    0.4365   -0.6621 H       1  UNL1        0.0640
     45 H          -2.5622    0.6755   -3.7948 H       1  UNL1        0.0278
     46 H          -1.3819   -0.6234   -3.5446 H       1  UNL1        0.0278
     47 H          -0.8697    1.1119   -3.3050 H       1  UNL1        0.0278
@<TRIPOS>BOND
     1     1     2    1
     2     2     3    1
     3     3     4   ar
     4     4     5   ar
     5     5     6    1
     6     6     7    1
     7     7     8   ar
     8     8     9   ar
     9     9    10   ar
    10    10    11    1
    11    10    12   ar
    12    12    13   ar
    13    13    14    1
    14     5    15   ar
    15    15    16   ar
    16    16    17   ar
    17    17    18    1
    18    18    19    1
    19    19    20    1
    20    19    21    1
    21    21    22    1
    22    19    23    1
    23    23    24    1
    24    23    25    2
    25    25    26    1
    26    17     3   ar
    27    13     7   ar
    28    25    16    1
    29     1    27    1
    30     1    28    1
    31     1    29    1
    32     4    30    1
    33     6    31    1
    34     6    32    1
    35     8    33    1
    36    11    34    1
    37    11    35    1
    38    14    36    1
    39    14    37    1
    40    15    38    1
    41    18    39    1
    42    20    40    1
    43    20    41    1
    44    20    42    1
    45    21    43    1
    46    21    44    1
    47    26    45    1
    48    26    46    1
    49    26    47    1
