
     RDKit          3D

 53 55  0  0  0  0  0  0  0  0999 V2000
    6.7236    0.1722   -2.9309 C   0  0  0  0  0  0  0  0  0  0  0  0
    6.6028    0.4399   -1.4571 C   0  0  0  0  0  0  0  0  0  0  0  0
    5.4467   -0.3512   -0.8865 C   0  0  0  0  0  0  0  0  0  0  0  0
    5.3058   -0.0947    0.6069 C   0  0  0  0  0  0  0  0  0  0  0  0
    4.1915   -0.8662    1.1213 N   0  0  0  0  0  0  0  0  0  0  0  0
    4.2367   -2.1968    1.6427 C   0  0  0  0  0  0  0  0  0  0  0  0
    5.2893   -2.8601    1.7114 O   0  0  0  0  0  0  0  0  0  0  0  0
    2.8824   -2.5434    2.0322 C   0  0  0  0  0  0  0  0  0  0  0  0
    2.5140   -3.6281    2.5324 O   0  0  0  0  0  0  0  0  0  0  0  0
    2.0298   -1.3979    1.7344 C   0  0  0  0  0  0  0  0  0  0  0  0
    0.6760   -1.1975    1.9059 C   0  0  0  0  0  0  0  0  0  0  0  0
    0.1049   -0.0014    1.5357 C   0  0  0  0  0  0  0  0  0  0  0  0
   -1.5725    0.3698    1.6994 S   0  0  0  0  0  6  0  0  0  0  0  0
   -2.0829   -0.3869    2.9210 O   0  0  0  0  0  0  0  0  0  0  0  0
   -1.6911    1.8317    2.0562 O   0  0  0  0  0  0  0  0  0  0  0  0
   -2.5027   -0.0526    0.3304 N   0  0  0  0  0  0  0  0  0  0  0  0
   -2.0144    0.7073   -0.8058 C   0  0  0  0  0  0  0  0  0  0  0  0
   -2.6280    2.0714   -0.7220 C   0  0  0  0  0  0  0  0  0  0  0  0
   -3.8038    1.9390    0.2187 C   0  0  0  0  0  0  0  0  0  0  0  0
   -3.8525    0.4587    0.4790 C   0  0  1  0  0  0  0  0  0  0  0  0
   -4.7797   -0.1404   -0.5858 C   0  0  0  0  0  0  0  0  0  0  0  0
   -6.0356    0.3845   -0.3858 O   0  0  0  0  0  0  0  0  0  0  0  0
   -6.9286   -0.0641   -1.3241 C   0  0  0  0  0  0  0  0  0  0  0  0
   -7.0605   -1.5632   -1.2560 C   0  0  0  0  0  0  0  0  0  0  0  0
   -8.0204   -1.8851   -2.2375 F   0  0  0  0  0  0  0  0  0  0  0  0
    0.9371    0.9605    0.9982 C   0  0  0  0  0  0  0  0  0  0  0  0
    2.2797    0.7553    0.8306 C   0  0  0  0  0  0  0  0  0  0  0  0
    2.8500   -0.4367    1.1994 C   0  0  0  0  0  0  0  0  0  0  0  0
    6.7783   -0.9345   -3.1239 H   0  0  0  0  0  0  0  0  0  0  0  0
    5.8627    0.5567   -3.4947 H   0  0  0  0  0  0  0  0  0  0  0  0
    7.6846    0.5839   -3.3137 H   0  0  0  0  0  0  0  0  0  0  0  0
    6.3757    1.5178   -1.3265 H   0  0  0  0  0  0  0  0  0  0  0  0
    7.5344    0.2162   -0.9329 H   0  0  0  0  0  0  0  0  0  0  0  0
    4.5030   -0.0719   -1.3804 H   0  0  0  0  0  0  0  0  0  0  0  0
    5.6110   -1.4258   -1.0355 H   0  0  0  0  0  0  0  0  0  0  0  0
    6.2455   -0.3074    1.1418 H   0  0  0  0  0  0  0  0  0  0  0  0
    5.0465    0.9760    0.7117 H   0  0  0  0  0  0  0  0  0  0  0  0
    0.0305   -1.9434    2.3227 H   0  0  0  0  0  0  0  0  0  0  0  0
   -0.9044    0.7267   -0.8278 H   0  0  0  0  0  0  0  0  0  0  0  0
   -2.3683    0.2406   -1.7674 H   0  0  0  0  0  0  0  0  0  0  0  0
   -1.9273    2.8489   -0.3894 H   0  0  0  0  0  0  0  0  0  0  0  0
   -3.0273    2.4031   -1.7151 H   0  0  0  0  0  0  0  0  0  0  0  0
   -4.7574    2.2707   -0.2759 H   0  0  0  0  0  0  0  0  0  0  0  0
   -3.7117    2.5485    1.1267 H   0  0  0  0  0  0  0  0  0  0  0  0
   -4.2561    0.3073    1.4839 H   0  0  0  0  0  0  0  0  0  0  0  0
   -4.7363   -1.2476   -0.5079 H   0  0  0  0  0  0  0  0  0  0  0  0
   -4.4400    0.1367   -1.5995 H   0  0  0  0  0  0  0  0  0  0  0  0
   -7.9073    0.4247   -1.0931 H   0  0  0  0  0  0  0  0  0  0  0  0
   -6.6234    0.2535   -2.3548 H   0  0  0  0  0  0  0  0  0  0  0  0
   -6.1126   -2.0676   -1.5922 H   0  0  0  0  0  0  0  0  0  0  0  0
   -7.4292   -1.9100   -0.2860 H   0  0  0  0  0  0  0  0  0  0  0  0
    0.5381    1.9325    0.6853 H   0  0  0  0  0  0  0  0  0  0  0  0
    2.8931    1.5403    0.4042 H   0  0  0  0  0  0  0  0  0  0  0  0
  1  2  1  0
  2  3  1  0
  3  4  1  0
  4  5  1  0
  5  6  1  0
  6  7  2  0
  6  8  1  0
  8  9  2  0
  8 10  1  0
 10 11  2  0
 11 12  1  0
 12 13  1  0
 13 14  2  0
 13 15  2  0
 13 16  1  0
 16 17  1  0
 17 18  1  0
 18 19  1  0
 19 20  1  0
 20 21  1  0
 21 22  1  0
 22 23  1  0
 23 24  1  0
 24 25  1  0
 12 26  2  0
 26 27  1  0
 27 28  2  0
 28  5  1  0
 28 10  1  0
 20 16  1  0
  1 29  1  0
  1 30  1  0
  1 31  1  0
  2 32  1  0
  2 33  1  0
  3 34  1  0
  3 35  1  0
  4 36  1  0
  4 37  1  0
 11 38  1  0
 17 39  1  0
 17 40  1  0
 18 41  1  0
 18 42  1  0
 19 43  1  0
 19 44  1  0
 20 45  1  1
 21 46  1  0
 21 47  1  0
 23 48  1  0
 23 49  1  0
 24 50  1  0
 24 51  1  0
 26 52  1  0
 27 53  1  0
M  END
$$$$
