@<TRIPOS>MOLECULE
*****
 53 55 0 0 0
SMALL
GASTEIGER

@<TRIPOS>ATOM
      1 C           6.7236    0.1722   -2.9309 C.3     1  UNL1       -0.0652
      2 C           6.6028    0.4399   -1.4571 C.3     1  UNL1       -0.0545
      3 C           5.4467   -0.3512   -0.8865 C.3     1  UNL1       -0.0370
      4 C           5.3058   -0.0947    0.6069 C.3     1  UNL1        0.0202
      5 N           4.1915   -0.8662    1.1213 N.am    1  UNL1       -0.2641
      6 C           4.2367   -2.1968    1.6427 C.2     1  UNL1        0.2913
      7 O           5.2893   -2.8601    1.7114 O.2     1  UNL1       -0.2661
      8 C           2.8824   -2.5434    2.0322 C.2     1  UNL1        0.2496
      9 O           2.5140   -3.6281    2.5324 O.2     1  UNL1       -0.2817
     10 C           2.0298   -1.3979    1.7344 C.ar    1  UNL1        0.0502
     11 C           0.6760   -1.1975    1.9059 C.ar    1  UNL1       -0.0226
     12 C           0.1049   -0.0014    1.5357 C.ar    1  UNL1        0.1063
     13 S          -1.5725    0.3698    1.6994 S.O2    1  UNL1        0.0612
     14 O          -2.0829   -0.3869    2.9210 O.2     1  UNL1       -0.1528
     15 O          -1.6911    1.8317    2.0562 O.2     1  UNL1       -0.1528
     16 N          -2.5027   -0.0526    0.3304 N.3     1  UNL1       -0.1713
     17 C          -2.0144    0.7073   -0.8058 C.3     1  UNL1        0.0209
     18 C          -2.6280    2.0714   -0.7220 C.3     1  UNL1       -0.0370
     19 C          -3.8038    1.9390    0.2187 C.3     1  UNL1       -0.0323
     20 C          -3.8525    0.4587    0.4790 C.3     1  UNL1        0.0552
     21 C          -4.7797   -0.1404   -0.5858 C.3     1  UNL1        0.0650
     22 O          -6.0356    0.3845   -0.3858 O.3     1  UNL1       -0.3756
     23 C          -6.9286   -0.0641   -1.3241 C.3     1  UNL1        0.0759
     24 C          -7.0605   -1.5632   -1.2560 C.3     1  UNL1        0.1134
     25 F          -8.0204   -1.8851   -2.2375 F       1  UNL1       -0.2467
     26 C           0.9371    0.9605    0.9982 C.ar    1  UNL1       -0.0335
     27 C           2.2797    0.7553    0.8306 C.ar    1  UNL1       -0.0377
     28 C           2.8500   -0.4367    1.1994 C.ar    1  UNL1        0.0477
     29 H           6.7783   -0.9345   -3.1239 H       1  UNL1        0.0230
     30 H           5.8627    0.5567   -3.4947 H       1  UNL1        0.0230
     31 H           7.6846    0.5839   -3.3137 H       1  UNL1        0.0230
     32 H           6.3757    1.5178   -1.3265 H       1  UNL1        0.0263
     33 H           7.5344    0.2162   -0.9329 H       1  UNL1        0.0263
     34 H           4.5030   -0.0719   -1.3804 H       1  UNL1        0.0280
     35 H           5.6110   -1.4258   -1.0355 H       1  UNL1        0.0280
     36 H           6.2455   -0.3074    1.1418 H       1  UNL1        0.0469
     37 H           5.0465    0.9760    0.7117 H       1  UNL1        0.0469
     38 H           0.0305   -1.9434    2.3227 H       1  UNL1        0.0645
     39 H          -0.9044    0.7267   -0.8278 H       1  UNL1        0.0444
     40 H          -2.3683    0.2406   -1.7674 H       1  UNL1        0.0444
     41 H          -1.9273    2.8489   -0.3894 H       1  UNL1        0.0279
     42 H          -3.0273    2.4031   -1.7151 H       1  UNL1        0.0279
     43 H          -4.7574    2.2707   -0.2759 H       1  UNL1        0.0282
     44 H          -3.7117    2.5485    1.1267 H       1  UNL1        0.0282
     45 H          -4.2561    0.3073    1.4839 H       1  UNL1        0.0502
     46 H          -4.7363   -1.2476   -0.5079 H       1  UNL1        0.0576
     47 H          -4.4400    0.1367   -1.5995 H       1  UNL1        0.0576
     48 H          -7.9073    0.4247   -1.0931 H       1  UNL1        0.0585
     49 H          -6.6234    0.2535   -2.3548 H       1  UNL1        0.0585
     50 H          -6.1126   -2.0676   -1.5922 H       1  UNL1        0.0638
     51 H          -7.4292   -1.9100   -0.2860 H       1  UNL1        0.0638
     52 H           0.5381    1.9325    0.6853 H       1  UNL1        0.0638
     53 H           2.8931    1.5403    0.4042 H       1  UNL1        0.0637
@<TRIPOS>BOND
     1     1     2    1
     2     2     3    1
     3     3     4    1
     4     4     5    1
     5     5     6   am
     6     6     7    2
     7     6     8    1
     8     8     9    2
     9     8    10    1
    10    10    11   ar
    11    11    12   ar
    12    12    13    1
    13    13    14    2
    14    13    15    2
    15    13    16    1
    16    16    17    1
    17    17    18    1
    18    18    19    1
    19    19    20    1
    20    20    21    1
    21    21    22    1
    22    22    23    1
    23    23    24    1
    24    24    25    1
    25    12    26   ar
    26    26    27   ar
    27    27    28   ar
    28    28     5    1
    29    28    10   ar
    30    20    16    1
    31     1    29    1
    32     1    30    1
    33     1    31    1
    34     2    32    1
    35     2    33    1
    36     3    34    1
    37     3    35    1
    38     4    36    1
    39     4    37    1
    40    11    38    1
    41    17    39    1
    42    17    40    1
    43    18    41    1
    44    18    42    1
    45    19    43    1
    46    19    44    1
    47    20    45    1
    48    21    46    1
    49    21    47    1
    50    23    48    1
    51    23    49    1
    52    24    50    1
    53    24    51    1
    54    26    52    1
    55    27    53    1
