@<TRIPOS>MOLECULE
*****
 73 77 0 0 0
SMALL
GASTEIGER

@<TRIPOS>ATOM
      1 C           9.6235    2.7542    2.6097 C.3     1  UNL1        0.0805
      2 O           8.6634    2.1339    1.7743 O.3     1  UNL1       -0.4774
      3 C           8.6138    0.8249    1.4310 C.ar    1  UNL1        0.2552
      4 N           9.3933   -0.2051    1.7256 N.ar    1  UNL1       -0.1317
      5 N           8.9523   -1.3240    1.1476 N.ar    1  UNL1       -0.2692
      6 C           9.5649   -2.6302    1.2453 C.3     1  UNL1        0.0304
      7 C           7.8403   -0.9918    0.4540 C.ar    1  UNL1        0.0503
      8 C           7.5703    0.3449    0.5889 C.ar    1  UNL1        0.1152
      9 N           6.5247    1.1440    0.0606 N.pl3   1  UNL1       -0.2782
     10 C           5.5409    0.6098   -0.7911 C.ar    1  UNL1        0.2202
     11 N           5.8766    0.1012   -1.9765 N.ar    1  UNL1       -0.2224
     12 C           4.9874   -0.3581   -2.8716 C.ar    1  UNL1        0.0361
     13 C           3.6433   -0.2769   -2.4970 C.ar    1  UNL1       -0.0062
     14 C           2.6748   -0.8082   -3.4983 C.3     1  UNL1       -0.0362
     15 C           3.2672    0.2432   -1.2799 C.ar    1  UNL1        0.0809
     16 C           1.8677    0.3242   -0.8914 C.ar    1  UNL1        0.0258
     17 C           0.9554    1.2408   -1.4439 C.ar    1  UNL1        0.0120
     18 N          -0.1868    1.0784   -0.7723 N.ar    1  UNL1       -0.3586
     19 C          -0.0839    0.1310    0.1648 C.ar    1  UNL1        0.0686
     20 C          -1.0631   -0.3515    1.0423 C.ar    1  UNL1        0.0576
     21 N          -2.3414    0.2195    1.1649 N.am    1  UNL1       -0.2825
     22 C          -3.4737    0.0383    0.3389 C.2     1  UNL1        0.2342
     23 O          -3.3627   -0.7177   -0.6446 O.2     1  UNL1       -0.2738
     24 C          -4.7508    0.7261    0.6289 C.3     1  UNL1        0.0850
     25 C          -4.5141    2.2252    0.8095 C.3     1  UNL1       -0.0409
     26 N          -5.7221    0.5435   -0.3852 N.3     1  UNL1       -0.2866
     27 C          -6.8169    1.5057   -0.2731 C.3     1  UNL1        0.0127
     28 C          -8.1365    0.9492    0.0781 C.3     1  UNL1        0.0115
     29 N          -8.1157   -0.2148    0.9029 N.3     1  UNL1       -0.3027
     30 C          -9.4446   -0.8419    0.8307 C.3     1  UNL1       -0.0127
     31 C          -7.1513   -1.1892    0.5472 C.3     1  UNL1        0.0140
     32 C          -6.2256   -0.7870   -0.5750 C.3     1  UNL1        0.0211
     33 C          -6.8633   -0.9564   -1.9453 C.3     1  UNL1       -0.0483
     34 C          -0.6660   -1.3961    1.8854 C.ar    1  UNL1       -0.0384
     35 C           0.6225   -1.8849    1.8236 C.ar    1  UNL1       -0.0593
     36 C           1.5618   -1.3841    0.9498 C.ar    1  UNL1       -0.0518
     37 C           1.1948   -0.3473    0.0981 C.ar    1  UNL1        0.0107
     38 N           4.2424    0.6735   -0.4561 N.ar    1  UNL1       -0.2139
     39 H           9.2415    3.7845    2.9000 H       1  UNL1        0.0660
     40 H          10.5217    2.9569    1.9988 H       1  UNL1        0.0660
     41 H           9.8419    2.1940    3.5305 H       1  UNL1        0.0660
     42 H           8.8049   -3.4244    1.0162 H       1  UNL1        0.0473
     43 H          10.4684   -2.7042    0.5945 H       1  UNL1        0.0473
     44 H           9.8883   -2.8574    2.2924 H       1  UNL1        0.0473
     45 H           7.2362   -1.6765   -0.1335 H       1  UNL1        0.0846
     46 H           6.4614    2.1687    0.3017 H       1  UNL1        0.1552
     47 H           5.3076   -0.7564   -3.8032 H       1  UNL1        0.0834
     48 H           2.8906   -1.9030   -3.5772 H       1  UNL1        0.0279
     49 H           1.6320   -0.5834   -3.2841 H       1  UNL1        0.0279
     50 H           2.9178   -0.4081   -4.5074 H       1  UNL1        0.0279
     51 H           1.1971    1.9317   -2.2676 H       1  UNL1        0.0814
     52 H          -1.0412    1.6428   -0.9839 H       1  UNL1        0.1654
     53 H          -2.4714    0.8760    1.9934 H       1  UNL1        0.1549
     54 H          -5.1640    0.3038    1.5916 H       1  UNL1        0.0556
     55 H          -3.4209    2.3956    1.0662 H       1  UNL1        0.0249
     56 H          -5.0505    2.6243    1.6923 H       1  UNL1        0.0249
     57 H          -4.6600    2.7954   -0.1211 H       1  UNL1        0.0249
     58 H          -6.5476    2.3665    0.3848 H       1  UNL1        0.0439
     59 H          -6.8984    1.9608   -1.2957 H       1  UNL1        0.0439
     60 H          -8.8188    0.7975   -0.7897 H       1  UNL1        0.0439
     61 H          -8.6764    1.7365    0.6875 H       1  UNL1        0.0439
     62 H          -9.3934   -1.8876    0.4668 H       1  UNL1        0.0391
     63 H          -9.9473   -0.8103    1.8234 H       1  UNL1        0.0391
     64 H         -10.1110   -0.2955    0.1199 H       1  UNL1        0.0391
     65 H          -6.5092   -1.4166    1.4197 H       1  UNL1        0.0442
     66 H          -7.6086   -2.1788    0.2686 H       1  UNL1        0.0442
     67 H          -5.3920   -1.5032   -0.5376 H       1  UNL1        0.0473
     68 H          -7.2211   -0.0136   -2.3752 H       1  UNL1        0.0245
     69 H          -6.1032   -1.3574   -2.6653 H       1  UNL1        0.0245
     70 H          -7.7017   -1.6588   -1.8410 H       1  UNL1        0.0245
     71 H          -1.3946   -1.7963    2.5752 H       1  UNL1        0.0637
     72 H           0.8780   -2.6968    2.4935 H       1  UNL1        0.0618
     73 H           2.5807   -1.7532    0.8820 H       1  UNL1        0.0624
@<TRIPOS>BOND
     1     1     2    1
     2     2     3    1
     3     3     4   ar
     4     4     5   ar
     5     5     6    1
     6     5     7   ar
     7     7     8   ar
     8     8     9    1
     9     9    10    1
    10    10    11   ar
    11    11    12   ar
    12    12    13   ar
    13    13    14    1
    14    13    15   ar
    15    15    16    1
    16    16    17   ar
    17    17    18   ar
    18    18    19   ar
    19    19    20   ar
    20    20    21    1
    21    21    22   am
    22    22    23    2
    23    22    24    1
    24    24    25    1
    25    24    26    1
    26    26    27    1
    27    27    28    1
    28    28    29    1
    29    29    30    1
    30    29    31    1
    31    31    32    1
    32    32    33    1
    33    20    34   ar
    34    34    35   ar
    35    35    36   ar
    36    36    37   ar
    37    15    38   ar
    38     8     3   ar
    39    38    10   ar
    40    37    16   ar
    41    37    19   ar
    42    32    26    1
    43     1    39    1
    44     1    40    1
    45     1    41    1
    46     6    42    1
    47     6    43    1
    48     6    44    1
    49     7    45    1
    50     9    46    1
    51    12    47    1
    52    14    48    1
    53    14    49    1
    54    14    50    1
    55    17    51    1
    56    18    52    1
    57    21    53    1
    58    24    54    1
    59    25    55    1
    60    25    56    1
    61    25    57    1
    62    27    58    1
    63    27    59    1
    64    28    60    1
    65    28    61    1
    66    30    62    1
    67    30    63    1
    68    30    64    1
    69    31    65    1
    70    31    66    1
    71    32    67    1
    72    33    68    1
    73    33    69    1
    74    33    70    1
    75    34    71    1
    76    35    72    1
    77    36    73    1
