@<TRIPOS>MOLECULE
*****
 38 38 0 0 0
SMALL
GASTEIGER

@<TRIPOS>ATOM
      1 C          -2.6666   -0.6667    0.2631 C.3     1  UNL1        0.1013
      2 O          -3.7755   -0.1016   -0.3543 O.3     1  UNL1       -0.3856
      3 C          -2.5645   -2.1189   -0.0291 C.2     1  UNL1       -0.0049
      4 C          -1.4121   -2.7327    0.1849 C.2     1  UNL1        0.2059
      5 O          -0.3632   -1.9977    0.6678 O.2     1  UNL1       -0.4547
      6 C          -0.2602   -0.5956    0.6069 C.3     1  UNL1        0.2233
      7 O           0.9230   -0.2650   -0.0251 O.3     1  UNL1       -0.3398
      8 C           1.7469    0.4985    0.8077 C.3     1  UNL1        0.0540
      9 C           3.0055    0.8027    0.0219 C.3     1  UNL1       -0.0231
     10 C           3.6342   -0.5443   -0.3301 C.3     1  UNL1       -0.0606
     11 C           4.0014    1.6120    0.8027 C.3     1  UNL1       -0.0606
     12 C          -1.3958   -0.0403   -0.2413 C.3     1  UNL1        0.1150
     13 N          -1.4936    1.3900   -0.1363 N.am    1  UNL1       -0.3042
     14 C          -1.3891    2.4339   -1.1261 C.2     1  UNL1        0.2104
     15 C          -1.5511    3.8149   -0.6153 C.3     1  UNL1        0.0122
     16 O          -1.1740    2.1020   -2.3176 O.2     1  UNL1       -0.2761
     17 C          -1.3374   -4.1571   -0.1094 C.2     1  UNL1        0.3717
     18 O          -2.4709   -4.7938   -0.5961 O.3     1  UNL1       -0.4750
     19 O          -0.3264   -4.8622    0.0412 O.2     1  UNL1       -0.2417
     20 H          -2.7173   -0.5570    1.3668 H       1  UNL1        0.0660
     21 H          -4.4494    0.1549    0.3458 H       1  UNL1        0.2103
     22 H          -3.4426   -2.6147   -0.4067 H       1  UNL1        0.0637
     23 H          -0.3177   -0.1912    1.6412 H       1  UNL1        0.1076
     24 H           1.9587   -0.1103    1.7065 H       1  UNL1        0.0564
     25 H           1.2429    1.4213    1.1422 H       1  UNL1        0.0564
     26 H           2.7445    1.3160   -0.9043 H       1  UNL1        0.0318
     27 H           4.4924   -0.3910   -0.9979 H       1  UNL1        0.0233
     28 H           3.9560   -1.0238    0.6183 H       1  UNL1        0.0233
     29 H           2.8288   -1.1494   -0.7974 H       1  UNL1        0.0233
     30 H           5.0451    1.2611    0.5588 H       1  UNL1        0.0233
     31 H           3.9503    2.6999    0.6140 H       1  UNL1        0.0233
     32 H           3.8633    1.4308    1.8819 H       1  UNL1        0.0233
     33 H          -1.2057   -0.3496   -1.2883 H       1  UNL1        0.0589
     34 H          -1.6745    1.6179    0.8830 H       1  UNL1        0.1493
     35 H          -1.9927    4.4075   -1.4590 H       1  UNL1        0.0322
     36 H          -0.5691    4.2383   -0.3536 H       1  UNL1        0.0322
     37 H          -2.2727    3.8811    0.2049 H       1  UNL1        0.0322
     38 H          -2.5706   -5.8200   -0.6123 H       1  UNL1        0.2955
@<TRIPOS>BOND
     1     1     2    1
     2     1     3    1
     3     3     4    2
     4     4     5    1
     5     5     6    1
     6     6     7    1
     7     7     8    1
     8     8     9    1
     9     9    10    1
    10     9    11    1
    11     6    12    1
    12    12    13    1
    13    13    14   am
    14    14    15    1
    15    14    16    2
    16     4    17    1
    17    17    18    1
    18    17    19    2
    19    12     1    1
    20     1    20    1
    21     2    21    1
    22     3    22    1
    23     6    23    1
    24     8    24    1
    25     8    25    1
    26     9    26    1
    27    10    27    1
    28    10    28    1
    29    10    29    1
    30    11    30    1
    31    11    31    1
    32    11    32    1
    33    12    33    1
    34    13    34    1
    35    15    35    1
    36    15    36    1
    37    15    37    1
    38    18    38    1
