
     RDKit          3D

 38 38  0  0  0  0  0  0  0  0999 V2000
   -2.6666   -0.6667    0.2631 C   0  0  1  0  0  0  0  0  0  0  0  0
   -3.7755   -0.1016   -0.3543 O   0  0  0  0  0  0  0  0  0  0  0  0
   -2.5645   -2.1189   -0.0291 C   0  0  0  0  0  0  0  0  0  0  0  0
   -1.4121   -2.7327    0.1849 C   0  0  0  0  0  0  0  0  0  0  0  0
   -0.3632   -1.9977    0.6678 O   0  0  0  0  0  0  0  0  0  0  0  0
   -0.2602   -0.5956    0.6069 C   0  0  1  0  0  0  0  0  0  0  0  0
    0.9230   -0.2650   -0.0251 O   0  0  0  0  0  0  0  0  0  0  0  0
    1.7469    0.4985    0.8077 C   0  0  0  0  0  0  0  0  0  0  0  0
    3.0055    0.8027    0.0219 C   0  0  0  0  0  0  0  0  0  0  0  0
    3.6342   -0.5443   -0.3301 C   0  0  0  0  0  0  0  0  0  0  0  0
    4.0014    1.6120    0.8027 C   0  0  0  0  0  0  0  0  0  0  0  0
   -1.3958   -0.0403   -0.2413 C   0  0  2  0  0  0  0  0  0  0  0  0
   -1.4936    1.3900   -0.1363 N   0  0  0  0  0  0  0  0  0  0  0  0
   -1.3891    2.4339   -1.1261 C   0  0  0  0  0  0  0  0  0  0  0  0
   -1.5511    3.8149   -0.6153 C   0  0  0  0  0  0  0  0  0  0  0  0
   -1.1740    2.1020   -2.3176 O   0  0  0  0  0  0  0  0  0  0  0  0
   -1.3374   -4.1571   -0.1094 C   0  0  0  0  0  0  0  0  0  0  0  0
   -2.4709   -4.7938   -0.5961 O   0  0  0  0  0  0  0  0  0  0  0  0
   -0.3264   -4.8622    0.0412 O   0  0  0  0  0  0  0  0  0  0  0  0
   -2.7173   -0.5570    1.3668 H   0  0  0  0  0  0  0  0  0  0  0  0
   -4.4494    0.1549    0.3458 H   0  0  0  0  0  0  0  0  0  0  0  0
   -3.4426   -2.6147   -0.4067 H   0  0  0  0  0  0  0  0  0  0  0  0
   -0.3177   -0.1912    1.6412 H   0  0  0  0  0  0  0  0  0  0  0  0
    1.9587   -0.1103    1.7065 H   0  0  0  0  0  0  0  0  0  0  0  0
    1.2429    1.4213    1.1422 H   0  0  0  0  0  0  0  0  0  0  0  0
    2.7445    1.3160   -0.9043 H   0  0  0  0  0  0  0  0  0  0  0  0
    4.4924   -0.3910   -0.9979 H   0  0  0  0  0  0  0  0  0  0  0  0
    3.9560   -1.0238    0.6183 H   0  0  0  0  0  0  0  0  0  0  0  0
    2.8288   -1.1494   -0.7974 H   0  0  0  0  0  0  0  0  0  0  0  0
    5.0451    1.2611    0.5588 H   0  0  0  0  0  0  0  0  0  0  0  0
    3.9503    2.6999    0.6140 H   0  0  0  0  0  0  0  0  0  0  0  0
    3.8633    1.4308    1.8819 H   0  0  0  0  0  0  0  0  0  0  0  0
   -1.2057   -0.3496   -1.2883 H   0  0  0  0  0  0  0  0  0  0  0  0
   -1.6745    1.6179    0.8830 H   0  0  0  0  0  0  0  0  0  0  0  0
   -1.9927    4.4075   -1.4590 H   0  0  0  0  0  0  0  0  0  0  0  0
   -0.5691    4.2383   -0.3536 H   0  0  0  0  0  0  0  0  0  0  0  0
   -2.2727    3.8811    0.2049 H   0  0  0  0  0  0  0  0  0  0  0  0
   -2.5706   -5.8200   -0.6123 H   0  0  0  0  0  0  0  0  0  0  0  0
  1  2  1  0
  1  3  1  0
  3  4  2  0
  4  5  1  0
  5  6  1  0
  6  7  1  0
  7  8  1  0
  8  9  1  0
  9 10  1  0
  9 11  1  0
  6 12  1  0
 12 13  1  0
 13 14  1  0
 14 15  1  0
 14 16  2  0
  4 17  1  0
 17 18  1  0
 17 19  2  0
 12  1  1  0
  1 20  1  1
  2 21  1  0
  3 22  1  0
  6 23  1  1
  8 24  1  0
  8 25  1  0
  9 26  1  0
 10 27  1  0
 10 28  1  0
 10 29  1  0
 11 30  1  0
 11 31  1  0
 11 32  1  0
 12 33  1  6
 13 34  1  0
 15 35  1  0
 15 36  1  0
 15 37  1  0
 18 38  1  0
M  END
$$$$
