@<TRIPOS>MOLECULE
*****
 55 59 0 0 0
SMALL
GASTEIGER

@<TRIPOS>ATOM
      1 C           5.6564   -5.1310   -0.0527 C.3     1  UNL1        0.0788
      2 O           4.5723   -4.4718   -0.6323 O.3     1  UNL1       -0.4950
      3 C           4.1451   -3.2065   -0.3034 C.ar    1  UNL1        0.1237
      4 C           3.0694   -2.6855   -0.9512 C.ar    1  UNL1       -0.0190
      5 C           2.6146   -1.4183   -0.6453 C.ar    1  UNL1       -0.0439
      6 C           3.2184   -0.6476    0.3072 C.ar    1  UNL1        0.0662
      7 C           2.9802    0.6367    0.8108 C.ar    1  UNL1        0.1922
      8 N           1.9379    1.5371    0.4004 N.ar    1  UNL1       -0.2413
      9 C           0.6978    1.6387    0.8400 C.ar    1  UNL1        0.3362
     10 O           0.2101    0.9121    1.7464 O.2     1  UNL1       -0.2459
     11 N           0.0441    2.6434    0.1616 N.ar    1  UNL1       -0.2873
     12 C          -1.3057    3.0183    0.4623 C.3     1  UNL1        0.0547
     13 C          -2.3602    2.1559   -0.0600 C.ar    1  UNL1       -0.0059
     14 C          -2.8922    1.1970    0.8176 C.ar    1  UNL1       -0.0136
     15 C          -3.8789    0.2823    0.4659 C.ar    1  UNL1        0.1221
     16 O          -4.3412   -0.6274    1.3976 O.3     1  UNL1       -0.4779
     17 C          -5.3131   -1.5897    1.1762 C.3     1  UNL1        0.1931
     18 C          -6.4684   -1.4486    2.1623 C.3     1  UNL1       -0.0172
     19 C          -4.7703   -2.9763    1.2790 C.2     1  UNL1        0.3456
     20 O          -5.5227   -3.9529    1.1102 O.2     1  UNL1       -0.2468
     21 O          -3.4424   -3.1672    1.5592 O.3     1  UNL1       -0.4781
     22 C          -4.3259    0.3633   -0.8265 C.ar    1  UNL1       -0.0185
     23 C          -3.8276    1.2911   -1.7140 C.ar    1  UNL1       -0.0396
     24 C          -2.8493    2.1701   -1.3012 C.ar    1  UNL1        0.0461
     25 CL         -2.3124    3.3152   -2.4923 Cl      1  UNL1       -0.0832
     26 C           0.9476    3.1292   -0.6904 C.ar    1  UNL1        0.0706
     27 C           0.9174    4.1437   -1.6081 C.ar    1  UNL1       -0.0360
     28 C           2.0367    4.4691   -2.3739 C.ar    1  UNL1       -0.0597
     29 C           3.2313    3.7969   -2.2546 C.ar    1  UNL1       -0.0597
     30 C           3.2684    2.7797   -1.3335 C.ar    1  UNL1       -0.0356
     31 C           2.1678    2.4523   -0.5727 C.ar    1  UNL1        0.0765
     32 N           3.9410    0.7999    1.7372 N.ar    1  UNL1       -0.0587
     33 O           4.6971   -0.2572    1.8101 O.2     1  UNL1       -0.3525
     34 C           4.3099   -1.1720    0.9668 C.ar    1  UNL1        0.1728
     35 C           4.7729   -2.4283    0.6741 C.ar    1  UNL1        0.0257
     36 H           5.3594   -5.4398    0.9823 H       1  UNL1        0.0660
     37 H           5.8548   -6.0740   -0.6070 H       1  UNL1        0.0660
     38 H           6.5933   -4.5626   -0.0322 H       1  UNL1        0.0660
     39 H           2.5294   -3.2248   -1.7201 H       1  UNL1        0.0654
     40 H           1.7605   -0.9915   -1.1516 H       1  UNL1        0.0627
     41 H          -1.3771    3.0338    1.5820 H       1  UNL1        0.0543
     42 H          -1.4899    4.1133    0.2018 H       1  UNL1        0.0543
     43 H          -2.5353    1.1331    1.8450 H       1  UNL1        0.0658
     44 H          -5.7628   -1.5301    0.1737 H       1  UNL1        0.0849
     45 H          -7.3663   -1.0062    1.6680 H       1  UNL1        0.0271
     46 H          -6.1760   -0.8326    3.0535 H       1  UNL1        0.0271
     47 H          -6.7710   -2.4723    2.4542 H       1  UNL1        0.0271
     48 H          -2.9726   -4.0779    1.4417 H       1  UNL1        0.2952
     49 H          -5.1067   -0.3282   -1.1806 H       1  UNL1        0.0654
     50 H          -4.2206    1.3185   -2.7475 H       1  UNL1        0.0633
     51 H           0.0077    4.6978   -1.6962 H       1  UNL1        0.0639
     52 H           1.9795    5.2813   -3.0966 H       1  UNL1        0.0618
     53 H           4.0736    4.0809   -2.8684 H       1  UNL1        0.0618
     54 H           4.1716    2.2160   -1.1910 H       1  UNL1        0.0639
     55 H           5.6222   -2.8864    1.1588 H       1  UNL1        0.0692
@<TRIPOS>BOND
     1     1     2    1
     2     2     3    1
     3     3     4   ar
     4     4     5   ar
     5     5     6   ar
     6     6     7   ar
     7     7     8    1
     8     8     9   ar
     9     9    10    2
    10     9    11   ar
    11    11    12    1
    12    12    13    1
    13    13    14   ar
    14    14    15   ar
    15    15    16    1
    16    16    17    1
    17    17    18    1
    18    17    19    1
    19    19    20    2
    20    19    21    1
    21    15    22   ar
    22    22    23   ar
    23    23    24   ar
    24    24    25    1
    25    11    26   ar
    26    26    27   ar
    27    27    28   ar
    28    28    29   ar
    29    29    30   ar
    30    30    31   ar
    31     7    32   ar
    32    32    33   ar
    33    33    34   ar
    34    34    35   ar
    35    35     3   ar
    36    34     6   ar
    37    31     8   ar
    38    24    13   ar
    39    31    26   ar
    40     1    36    1
    41     1    37    1
    42     1    38    1
    43     4    39    1
    44     5    40    1
    45    12    41    1
    46    12    42    1
    47    14    43    1
    48    17    44    1
    49    18    45    1
    50    18    46    1
    51    18    47    1
    52    21    48    1
    53    22    49    1
    54    23    50    1
    55    27    51    1
    56    28    52    1
    57    29    53    1
    58    30    54    1
    59    35    55    1
