
     RDKit          3D

 55 59  0  0  0  0  0  0  0  0999 V2000
    5.6564   -5.1310   -0.0527 C   0  0  0  0  0  0  0  0  0  0  0  0
    4.5723   -4.4718   -0.6323 O   0  0  0  0  0  0  0  0  0  0  0  0
    4.1451   -3.2065   -0.3034 C   0  0  0  0  0  0  0  0  0  0  0  0
    3.0694   -2.6855   -0.9512 C   0  0  0  0  0  0  0  0  0  0  0  0
    2.6146   -1.4183   -0.6453 C   0  0  0  0  0  0  0  0  0  0  0  0
    3.2184   -0.6476    0.3072 C   0  0  0  0  0  0  0  0  0  0  0  0
    2.9802    0.6367    0.8108 C   0  0  0  0  0  0  0  0  0  0  0  0
    1.9379    1.5371    0.4004 N   0  0  0  0  0  0  0  0  0  0  0  0
    0.6978    1.6387    0.8400 C   0  0  0  0  0  0  0  0  0  0  0  0
    0.2101    0.9121    1.7464 O   0  0  0  0  0  0  0  0  0  0  0  0
    0.0441    2.6434    0.1616 N   0  0  0  0  0  0  0  0  0  0  0  0
   -1.3057    3.0183    0.4623 C   0  0  0  0  0  0  0  0  0  0  0  0
   -2.3602    2.1559   -0.0600 C   0  0  0  0  0  0  0  0  0  0  0  0
   -2.8922    1.1970    0.8176 C   0  0  0  0  0  0  0  0  0  0  0  0
   -3.8789    0.2823    0.4659 C   0  0  0  0  0  0  0  0  0  0  0  0
   -4.3412   -0.6274    1.3976 O   0  0  0  0  0  0  0  0  0  0  0  0
   -5.3131   -1.5897    1.1762 C   0  0  2  0  0  0  0  0  0  0  0  0
   -6.4684   -1.4486    2.1623 C   0  0  0  0  0  0  0  0  0  0  0  0
   -4.7703   -2.9763    1.2790 C   0  0  0  0  0  0  0  0  0  0  0  0
   -5.5227   -3.9529    1.1102 O   0  0  0  0  0  0  0  0  0  0  0  0
   -3.4424   -3.1672    1.5592 O   0  0  0  0  0  0  0  0  0  0  0  0
   -4.3259    0.3633   -0.8265 C   0  0  0  0  0  0  0  0  0  0  0  0
   -3.8276    1.2911   -1.7140 C   0  0  0  0  0  0  0  0  0  0  0  0
   -2.8493    2.1701   -1.3012 C   0  0  0  0  0  0  0  0  0  0  0  0
   -2.3124    3.3152   -2.4923 Cl  0  0  0  0  0  0  0  0  0  0  0  0
    0.9476    3.1292   -0.6904 C   0  0  0  0  0  0  0  0  0  0  0  0
    0.9174    4.1437   -1.6081 C   0  0  0  0  0  0  0  0  0  0  0  0
    2.0367    4.4691   -2.3739 C   0  0  0  0  0  0  0  0  0  0  0  0
    3.2313    3.7969   -2.2546 C   0  0  0  0  0  0  0  0  0  0  0  0
    3.2684    2.7797   -1.3335 C   0  0  0  0  0  0  0  0  0  0  0  0
    2.1678    2.4523   -0.5727 C   0  0  0  0  0  0  0  0  0  0  0  0
    3.9410    0.7999    1.7372 N   0  0  0  0  0  0  0  0  0  0  0  0
    4.6971   -0.2572    1.8101 O   0  0  0  0  0  0  0  0  0  0  0  0
    4.3099   -1.1720    0.9668 C   0  0  0  0  0  0  0  0  0  0  0  0
    4.7729   -2.4283    0.6741 C   0  0  0  0  0  0  0  0  0  0  0  0
    5.3594   -5.4398    0.9823 H   0  0  0  0  0  0  0  0  0  0  0  0
    5.8548   -6.0740   -0.6070 H   0  0  0  0  0  0  0  0  0  0  0  0
    6.5933   -4.5626   -0.0322 H   0  0  0  0  0  0  0  0  0  0  0  0
    2.5294   -3.2248   -1.7201 H   0  0  0  0  0  0  0  0  0  0  0  0
    1.7605   -0.9915   -1.1516 H   0  0  0  0  0  0  0  0  0  0  0  0
   -1.3771    3.0338    1.5820 H   0  0  0  0  0  0  0  0  0  0  0  0
   -1.4899    4.1133    0.2018 H   0  0  0  0  0  0  0  0  0  0  0  0
   -2.5353    1.1331    1.8450 H   0  0  0  0  0  0  0  0  0  0  0  0
   -5.7628   -1.5301    0.1737 H   0  0  0  0  0  0  0  0  0  0  0  0
   -7.3663   -1.0062    1.6680 H   0  0  0  0  0  0  0  0  0  0  0  0
   -6.1760   -0.8326    3.0535 H   0  0  0  0  0  0  0  0  0  0  0  0
   -6.7710   -2.4723    2.4542 H   0  0  0  0  0  0  0  0  0  0  0  0
   -2.9726   -4.0779    1.4417 H   0  0  0  0  0  0  0  0  0  0  0  0
   -5.1067   -0.3282   -1.1806 H   0  0  0  0  0  0  0  0  0  0  0  0
   -4.2206    1.3185   -2.7475 H   0  0  0  0  0  0  0  0  0  0  0  0
    0.0077    4.6978   -1.6962 H   0  0  0  0  0  0  0  0  0  0  0  0
    1.9795    5.2813   -3.0966 H   0  0  0  0  0  0  0  0  0  0  0  0
    4.0736    4.0809   -2.8684 H   0  0  0  0  0  0  0  0  0  0  0  0
    4.1716    2.2160   -1.1910 H   0  0  0  0  0  0  0  0  0  0  0  0
    5.6222   -2.8864    1.1588 H   0  0  0  0  0  0  0  0  0  0  0  0
  1  2  1  0
  2  3  1  0
  3  4  2  0
  4  5  1  0
  5  6  2  0
  6  7  1  0
  7  8  1  0
  8  9  1  0
  9 10  2  0
  9 11  1  0
 11 12  1  0
 12 13  1  0
 13 14  2  0
 14 15  1  0
 15 16  1  0
 16 17  1  0
 17 18  1  0
 17 19  1  0
 19 20  2  0
 19 21  1  0
 15 22  2  0
 22 23  1  0
 23 24  2  0
 24 25  1  0
 11 26  1  0
 26 27  2  0
 27 28  1  0
 28 29  2  0
 29 30  1  0
 30 31  2  0
  7 32  2  0
 32 33  1  0
 33 34  1  0
 34 35  2  0
 35  3  1  0
 34  6  1  0
 31  8  1  0
 24 13  1  0
 31 26  1  0
  1 36  1  0
  1 37  1  0
  1 38  1  0
  4 39  1  0
  5 40  1  0
 12 41  1  0
 12 42  1  0
 14 43  1  0
 17 44  1  6
 18 45  1  0
 18 46  1  0
 18 47  1  0
 21 48  1  0
 22 49  1  0
 23 50  1  0
 27 51  1  0
 28 52  1  0
 29 53  1  0
 30 54  1  0
 35 55  1  0
M  END
$$$$
