
     RDKit          3D

 61 67  0  0  0  0  0  0  0  0999 V2000
   -1.0613    2.3402   -2.9595 O   0  0  0  0  0  0  0  0  0  0  0  0
   -2.2058    2.2021   -2.4696 C   0  0  0  0  0  0  0  0  0  0  0  0
   -3.3975    2.8210   -2.9007 N   0  0  0  0  0  0  0  0  0  0  0  0
   -4.4036    2.3359   -2.0215 C   0  0  0  0  0  0  0  0  0  0  0  0
   -5.6141    2.6433   -2.0571 O   0  0  0  0  0  0  0  0  0  0  0  0
   -3.7656    1.4074   -1.0569 C   0  0  0  0  0  0  0  0  0  0  0  0
   -4.4810    0.7024    0.0113 C   0  0  0  0  0  0  0  0  0  0  0  0
   -4.2843    0.6081    1.3453 C   0  0  0  0  0  0  0  0  0  0  0  0
   -5.2312   -0.2069    1.8520 N   0  0  0  0  0  0  0  0  0  0  0  0
   -6.0363   -0.6399    0.8602 C   0  0  0  0  0  0  0  0  0  0  0  0
   -7.1378   -1.4926    0.8816 C   0  0  0  0  0  0  0  0  0  0  0  0
   -7.8004   -1.7958   -0.2832 C   0  0  0  0  0  0  0  0  0  0  0  0
   -7.3295   -1.2277   -1.4404 C   0  0  0  0  0  0  0  0  0  0  0  0
   -6.2278   -0.3855   -1.4017 C   0  0  0  0  0  0  0  0  0  0  0  0
   -5.5708   -0.0790   -0.2686 N   0  0  0  0  0  0  0  0  0  0  0  0
   -2.4781    1.3209   -1.3064 C   0  0  0  0  0  0  0  0  0  0  0  0
   -1.4265    0.5715   -0.6080 C   0  0  0  0  0  0  0  0  0  0  0  0
   -0.8086   -0.6232   -0.9743 C   0  0  0  0  0  0  0  0  0  0  0  0
    0.1434   -0.9718   -0.1204 N   0  0  0  0  0  0  0  0  0  0  0  0
    0.1441    0.0103    0.8123 C   0  0  0  0  0  0  0  0  0  0  0  0
    0.9710    0.1265    1.9250 C   0  0  0  0  0  0  0  0  0  0  0  0
    0.8590    1.1913    2.7712 C   0  0  0  0  0  0  0  0  0  0  0  0
   -0.0901    2.1833    2.5324 C   0  0  0  0  0  0  0  0  0  0  0  0
   -0.9009    2.0551    1.4279 C   0  0  0  0  0  0  0  0  0  0  0  0
   -0.7978    0.9675    0.5502 C   0  0  0  0  0  0  0  0  0  0  0  0
    2.0422   -0.8134    2.3344 C   0  0  0  0  0  0  0  0  0  0  0  0
    2.8391   -1.0057    1.0745 N   0  0  0  0  0  0  0  0  0  0  0  0
    4.0337   -0.2502    1.0580 C   0  0  0  0  0  0  0  0  0  0  0  0
    4.2100    0.5174    2.1076 O   0  0  0  0  0  0  0  0  0  0  0  0
    5.0496   -0.1982    0.0997 N   0  0  0  0  0  0  0  0  0  0  0  0
    5.1798   -0.9318   -1.1243 C   0  0  0  0  0  0  0  0  0  0  0  0
    6.6443   -0.8000   -1.5675 C   0  0  0  0  0  0  0  0  0  0  0  0
    7.5290   -1.0507   -0.5244 O   0  0  0  0  0  0  0  0  0  0  0  0
    7.4143   -0.1002    0.4887 C   0  0  0  0  0  0  0  0  0  0  0  0
    6.1922    0.7545    0.3250 C   0  0  0  0  0  0  0  0  0  0  0  0
    2.4476   -1.8372   -0.0002 C   0  0  0  0  0  0  0  0  0  0  0  0
    0.9856   -2.1448   -0.1700 C   0  0  0  0  0  0  0  0  0  0  0  0
   -3.5191    3.4974   -3.7012 H   0  0  0  0  0  0  0  0  0  0  0  0
   -3.5062    1.1075    1.8852 H   0  0  0  0  0  0  0  0  0  0  0  0
   -7.4991   -1.9357    1.8052 H   0  0  0  0  0  0  0  0  0  0  0  0
   -8.6639   -2.4569   -0.2993 H   0  0  0  0  0  0  0  0  0  0  0  0
   -7.8469   -1.4652   -2.3539 H   0  0  0  0  0  0  0  0  0  0  0  0
   -5.8773    0.0317   -2.3581 H   0  0  0  0  0  0  0  0  0  0  0  0
   -1.1080   -1.1682   -1.8647 H   0  0  0  0  0  0  0  0  0  0  0  0
    1.4842    1.3170    3.6484 H   0  0  0  0  0  0  0  0  0  0  0  0
   -0.1963    3.0415    3.1948 H   0  0  0  0  0  0  0  0  0  0  0  0
   -1.6341    2.8005    1.2241 H   0  0  0  0  0  0  0  0  0  0  0  0
    1.6254   -1.7698    2.6610 H   0  0  0  0  0  0  0  0  0  0  0  0
    2.7257   -0.4108    3.0816 H   0  0  0  0  0  0  0  0  0  0  0  0
    4.9056   -1.9959   -1.0767 H   0  0  0  0  0  0  0  0  0  0  0  0
    4.6094   -0.4269   -1.9227 H   0  0  0  0  0  0  0  0  0  0  0  0
    6.8068   -1.6063   -2.3198 H   0  0  0  0  0  0  0  0  0  0  0  0
    6.7641    0.1631   -2.0574 H   0  0  0  0  0  0  0  0  0  0  0  0
    7.3599   -0.5753    1.5023 H   0  0  0  0  0  0  0  0  0  0  0  0
    8.3018    0.5493    0.4750 H   0  0  0  0  0  0  0  0  0  0  0  0
    6.2992    1.4192   -0.5329 H   0  0  0  0  0  0  0  0  0  0  0  0
    6.0368    1.3123    1.2557 H   0  0  0  0  0  0  0  0  0  0  0  0
    2.9879   -2.8044   -0.0529 H   0  0  0  0  0  0  0  0  0  0  0  0
    2.7155   -1.2821   -0.9493 H   0  0  0  0  0  0  0  0  0  0  0  0
    0.8852   -2.6787   -1.1427 H   0  0  0  0  0  0  0  0  0  0  0  0
    0.7073   -2.8673    0.6374 H   0  0  0  0  0  0  0  0  0  0  0  0
  1  2  2  0
  2  3  1  0
  3  4  1  0
  4  5  2  0
  4  6  1  0
  6  7  1  0
  7  8  2  0
  8  9  1  0
  9 10  2  0
 10 11  1  0
 11 12  2  0
 12 13  1  0
 13 14  2  0
 14 15  1  0
  6 16  2  0
 16 17  1  0
 17 18  2  0
 18 19  1  0
 19 20  1  0
 20 21  2  0
 21 22  1  0
 22 23  2  0
 23 24  1  0
 24 25  2  0
 21 26  1  0
 26 27  1  0
 27 28  1  0
 28 29  2  0
 28 30  1  0
 30 31  1  0
 31 32  1  0
 32 33  1  0
 33 34  1  0
 34 35  1  0
 27 36  1  0
 36 37  1  0
 16  2  1  0
 25 17  1  0
 35 30  1  0
 15  7  1  0
 37 19  1  0
 15 10  1  0
 25 20  1  0
  3 38  1  0
  8 39  1  0
 11 40  1  0
 12 41  1  0
 13 42  1  0
 14 43  1  0
 18 44  1  0
 22 45  1  0
 23 46  1  0
 24 47  1  0
 26 48  1  0
 26 49  1  0
 31 50  1  0
 31 51  1  0
 32 52  1  0
 32 53  1  0
 34 54  1  0
 34 55  1  0
 35 56  1  0
 35 57  1  0
 36 58  1  0
 36 59  1  0
 37 60  1  0
 37 61  1  0
M  END
$$$$
