@<TRIPOS>MOLECULE
*****
 61 67 0 0 0
SMALL
GASTEIGER

@<TRIPOS>ATOM
      1 O          -1.0613    2.3402   -2.9595 O.2     1  UNL1       -0.2697
      2 C          -2.2058    2.2021   -2.4696 C.2     1  UNL1        0.2519
      3 N          -3.3975    2.8210   -2.9007 N.am    1  UNL1       -0.2482
      4 C          -4.4036    2.3359   -2.0215 C.2     1  UNL1        0.2533
      5 O          -5.6141    2.6433   -2.0571 O.2     1  UNL1       -0.2697
      6 C          -3.7656    1.4074   -1.0569 C.2     1  UNL1        0.0751
      7 C          -4.4810    0.7024    0.0113 C.ar    1  UNL1        0.0789
      8 C          -4.2843    0.6081    1.3453 C.ar    1  UNL1        0.0545
      9 N          -5.2312   -0.2069    1.8520 N.ar    1  UNL1       -0.2355
     10 C          -6.0363   -0.6399    0.8602 C.ar    1  UNL1        0.1380
     11 C          -7.1378   -1.4926    0.8816 C.ar    1  UNL1       -0.0188
     12 C          -7.8004   -1.7958   -0.2832 C.ar    1  UNL1       -0.0569
     13 C          -7.3295   -1.2277   -1.4404 C.ar    1  UNL1       -0.0450
     14 C          -6.2278   -0.3855   -1.4017 C.ar    1  UNL1        0.0118
     15 N          -5.5708   -0.0790   -0.2686 N.ar    1  UNL1       -0.2991
     16 C          -2.4781    1.3209   -1.3064 C.2     1  UNL1        0.0604
     17 C          -1.4265    0.5715   -0.6080 C.ar    1  UNL1        0.0131
     18 C          -0.8086   -0.6232   -0.9743 C.ar    1  UNL1        0.0137
     19 N           0.1434   -0.9718   -0.1204 N.ar    1  UNL1       -0.3443
     20 C           0.1441    0.0103    0.8123 C.ar    1  UNL1        0.0544
     21 C           0.9710    0.1265    1.9250 C.ar    1  UNL1       -0.0060
     22 C           0.8590    1.1913    2.7712 C.ar    1  UNL1       -0.0551
     23 C          -0.0901    2.1833    2.5324 C.ar    1  UNL1       -0.0607
     24 C          -0.9009    2.0551    1.4279 C.ar    1  UNL1       -0.0520
     25 C          -0.7978    0.9675    0.5502 C.ar    1  UNL1        0.0081
     26 C           2.0422   -0.8134    2.3344 C.3     1  UNL1        0.0432
     27 N           2.8391   -1.0057    1.0745 N.am    1  UNL1       -0.2794
     28 C           4.0337   -0.2502    1.0580 C.2     1  UNL1        0.3053
     29 O           4.2100    0.5174    2.1076 O.2     1  UNL1       -0.2524
     30 N           5.0496   -0.1982    0.0997 N.am    1  UNL1       -0.2811
     31 C           5.1798   -0.9318   -1.1243 C.3     1  UNL1        0.0396
     32 C           6.6443   -0.8000   -1.5675 C.3     1  UNL1        0.0635
     33 O           7.5290   -1.0507   -0.5244 O.3     1  UNL1       -0.3767
     34 C           7.4143   -0.1002    0.4887 C.3     1  UNL1        0.0635
     35 C           6.1922    0.7545    0.3250 C.3     1  UNL1        0.0396
     36 C           2.4476   -1.8372   -0.0002 C.3     1  UNL1        0.0345
     37 C           0.9856   -2.1448   -0.1700 C.3     1  UNL1        0.0392
     38 H          -3.5191    3.4974   -3.7012 H       1  UNL1        0.1581
     39 H          -3.5062    1.1075    1.8852 H       1  UNL1        0.0852
     40 H          -7.4991   -1.9357    1.8052 H       1  UNL1        0.0654
     41 H          -8.6639   -2.4569   -0.2993 H       1  UNL1        0.0619
     42 H          -7.8469   -1.4652   -2.3539 H       1  UNL1        0.0632
     43 H          -5.8773    0.0317   -2.3581 H       1  UNL1        0.0813
     44 H          -1.1080   -1.1682   -1.8647 H       1  UNL1        0.0815
     45 H           1.4842    1.3170    3.6484 H       1  UNL1        0.0621
     46 H          -0.1963    3.0415    3.1948 H       1  UNL1        0.0618
     47 H          -1.6341    2.8005    1.2241 H       1  UNL1        0.0624
     48 H           1.6254   -1.7698    2.6610 H       1  UNL1        0.0515
     49 H           2.7257   -0.4108    3.0816 H       1  UNL1        0.0515
     50 H           4.9056   -1.9959   -1.0767 H       1  UNL1        0.0488
     51 H           4.6094   -0.4269   -1.9227 H       1  UNL1        0.0488
     52 H           6.8068   -1.6063   -2.3198 H       1  UNL1        0.0575
     53 H           6.7641    0.1631   -2.0574 H       1  UNL1        0.0575
     54 H           7.3599   -0.5753    1.5023 H       1  UNL1        0.0575
     55 H           8.3018    0.5493    0.4750 H       1  UNL1        0.0575
     56 H           6.2992    1.4192   -0.5329 H       1  UNL1        0.0488
     57 H           6.0368    1.3123    1.2557 H       1  UNL1        0.0488
     58 H           2.9879   -2.8044   -0.0529 H       1  UNL1        0.0483
     59 H           2.7155   -1.2821   -0.9493 H       1  UNL1        0.0483
     60 H           0.8852   -2.6787   -1.1427 H       1  UNL1        0.0507
     61 H           0.7073   -2.8673    0.6374 H       1  UNL1        0.0507
@<TRIPOS>BOND
     1     1     2    2
     2     2     3   am
     3     3     4   am
     4     4     5    2
     5     4     6    1
     6     6     7    1
     7     7     8   ar
     8     8     9   ar
     9     9    10   ar
    10    10    11   ar
    11    11    12   ar
    12    12    13   ar
    13    13    14   ar
    14    14    15   ar
    15     6    16    2
    16    16    17    1
    17    17    18   ar
    18    18    19   ar
    19    19    20   ar
    20    20    21   ar
    21    21    22   ar
    22    22    23   ar
    23    23    24   ar
    24    24    25   ar
    25    21    26    1
    26    26    27    1
    27    27    28   am
    28    28    29    2
    29    28    30   am
    30    30    31    1
    31    31    32    1
    32    32    33    1
    33    33    34    1
    34    34    35    1
    35    27    36    1
    36    36    37    1
    37    16     2    1
    38    25    17   ar
    39    35    30    1
    40    15     7   ar
    41    37    19    1
    42    15    10   ar
    43    25    20   ar
    44     3    38    1
    45     8    39    1
    46    11    40    1
    47    12    41    1
    48    13    42    1
    49    14    43    1
    50    18    44    1
    51    22    45    1
    52    23    46    1
    53    24    47    1
    54    26    48    1
    55    26    49    1
    56    31    50    1
    57    31    51    1
    58    32    52    1
    59    32    53    1
    60    34    54    1
    61    34    55    1
    62    35    56    1
    63    35    57    1
    64    36    58    1
    65    36    59    1
    66    37    60    1
    67    37    61    1
