@<TRIPOS>MOLECULE
*****
 50 53 0 0 0
SMALL
GASTEIGER

@<TRIPOS>ATOM
      1 C          -5.0587    2.3447    1.6374 C.3     1  UNL1       -0.0307
      2 C          -3.5781    1.9366    1.6518 C.3     1  UNL1        0.0870
      3 O          -3.1887    1.1405    0.7009 O.3     1  UNL1       -0.4883
      4 C          -2.7432    0.3500   -0.2201 C.ar    1  UNL1        0.1689
      5 C          -1.3871   -0.0700   -0.2690 C.ar    1  UNL1       -0.0106
      6 C          -0.9124   -0.8954   -1.2288 C.ar    1  UNL1       -0.0126
      7 C           0.5172   -1.3641   -1.3617 C.3     1  UNL1        0.0777
      8 N           0.4382   -2.7892   -1.2094 N.am    1  UNL1       -0.2882
      9 C           1.1796   -3.5040   -0.2470 C.2     1  UNL1        0.3046
     10 O           1.0504   -4.7698   -0.1304 O.2     1  UNL1       -0.2525
     11 N           2.0732   -2.8129    0.5954 N.am    1  UNL1       -0.2686
     12 C           2.1642   -1.3780    0.4112 C.2     1  UNL1        0.0478
     13 C           3.1750   -0.6630    1.2256 C.ar    1  UNL1       -0.0034
     14 C           3.2431   -0.8452    2.5873 C.ar    1  UNL1       -0.0528
     15 C           4.2370   -0.2021    3.3312 C.ar    1  UNL1       -0.0611
     16 C           5.1238    0.5999    2.6732 C.ar    1  UNL1       -0.0617
     17 C           5.0694    0.7923    1.3131 C.ar    1  UNL1       -0.0611
     18 C           4.0840    0.1515    0.5925 C.ar    1  UNL1       -0.0528
     19 C           1.4649   -0.7321   -0.4682 C.2     1  UNL1        0.0067
     20 C           1.6267    0.7723   -0.6050 C.ar    1  UNL1       -0.0110
     21 C           1.7050    1.4113   -1.7780 C.ar    1  UNL1       -0.0472
     22 C           1.8311    2.7371   -1.8616 C.ar    1  UNL1       -0.0237
     23 S           1.8501    3.2341   -0.0724 S.2     1  UNL1       -0.1045
     24 C           1.6811    1.5411    0.5302 C.ar    1  UNL1       -0.0168
     25 C          -1.8201   -1.3317   -2.1907 C.ar    1  UNL1        0.0249
     26 C          -3.1402   -0.9523   -2.1833 C.ar    1  UNL1        0.3180
     27 N          -4.0591   -1.4167   -3.1874 N.pl3   1  UNL1        0.0836
     28 O          -3.5885   -1.7114   -4.2988 O.2     1  UNL1        0.0416
     29 O          -5.3992   -1.5483   -2.9860 O.co2   1  UNL1       -0.5759
     30 C          -3.6202   -0.1209   -1.2188 C.ar    1  UNL1        0.2372
     31 O          -4.9386    0.2946   -1.1611 O.3     1  UNL1       -0.4989
     32 H          -5.2540    3.2002    2.2828 H       1  UNL1        0.0262
     33 H          -5.6247    1.4755    2.0244 H       1  UNL1        0.0262
     34 H          -5.3516    2.5050    0.5875 H       1  UNL1        0.0262
     35 H          -3.0254    2.9153    1.7784 H       1  UNL1        0.0694
     36 H          -3.4680    1.4520    2.6792 H       1  UNL1        0.0694
     37 H          -0.7503    0.2929    0.5200 H       1  UNL1        0.0659
     38 H           0.8267   -1.1322   -2.4461 H       1  UNL1        0.0600
     39 H          -0.2015   -3.3684   -1.8367 H       1  UNL1        0.1512
     40 H           2.6586   -3.2670    1.3268 H       1  UNL1        0.1564
     41 H           2.5279   -1.4804    3.0514 H       1  UNL1        0.0624
     42 H           4.3034   -0.3345    4.3955 H       1  UNL1        0.0618
     43 H           5.8880    1.0914    3.2620 H       1  UNL1        0.0618
     44 H           5.7983    1.4446    0.8133 H       1  UNL1        0.0618
     45 H           4.0596    0.3116   -0.4930 H       1  UNL1        0.0624
     46 H           1.6635    0.8107   -2.7416 H       1  UNL1        0.0629
     47 H           1.9128    3.4729   -2.6511 H       1  UNL1        0.0693
     48 H           1.6331    1.2859    1.5766 H       1  UNL1        0.0699
     49 H          -1.5034   -1.9871   -2.9755 H       1  UNL1        0.0690
     50 H          -5.1731    1.1128   -1.7260 H       1  UNL1        0.2925
@<TRIPOS>UNITY_ATOM_ATTR
27 1
charge 1
29 1
charge -1
@<TRIPOS>BOND
     1     1     2    1
     2     2     3    1
     3     3     4    1
     4     4     5   ar
     5     5     6   ar
     6     6     7    1
     7     7     8    1
     8     8     9   am
     9     9    10    2
    10     9    11   am
    11    11    12    1
    12    12    13    1
    13    13    14   ar
    14    14    15   ar
    15    15    16   ar
    16    16    17   ar
    17    17    18   ar
    18    12    19    2
    19    19    20    1
    20    20    21   ar
    21    21    22   ar
    22    22    23   ar
    23    23    24   ar
    24     6    25   ar
    25    25    26   ar
    26    26    27    1
    27    27    28    2
    28    27    29    1
    29    26    30   ar
    30    30    31    1
    31    30     4   ar
    32    19     7    1
    33    24    20   ar
    34    18    13   ar
    35     1    32    1
    36     1    33    1
    37     1    34    1
    38     2    35    1
    39     2    36    1
    40     5    37    1
    41     7    38    1
    42     8    39    1
    43    11    40    1
    44    14    41    1
    45    15    42    1
    46    16    43    1
    47    17    44    1
    48    18    45    1
    49    21    46    1
    50    22    47    1
    51    24    48    1
    52    25    49    1
    53    31    50    1
