
     RDKit          3D

 39 41  0  0  0  0  0  0  0  0999 V2000
    3.7637    2.3740   -0.9329 N   0  0  0  0  0  0  0  0  0  0  0  0
    3.6511    1.2927   -0.0174 C   0  0  0  0  0  0  0  0  0  0  0  0
    4.4392    1.1922    1.1233 C   0  0  0  0  0  0  0  0  0  0  0  0
    4.3393    0.1524    2.0149 C   0  0  0  0  0  0  0  0  0  0  0  0
    3.4221   -0.8546    1.7938 C   0  0  0  0  0  0  0  0  0  0  0  0
    2.6218   -0.7890    0.6715 C   0  0  0  0  0  0  0  0  0  0  0  0
    2.7429    0.2787   -0.2196 C   0  0  0  0  0  0  0  0  0  0  0  0
    1.8666    0.2966   -1.3956 C   0  0  0  0  0  0  0  0  0  0  0  0
    0.4870   -0.2277   -1.1139 C   0  0  0  0  0  0  0  0  0  0  0  0
    0.3978   -1.2071   -0.1064 N   0  0  0  0  0  0  0  0  0  0  0  0
   -0.7206   -0.9239    1.1336 S   0  0  0  0  0  6  0  0  0  0  0  0
   -0.4342    0.3197    1.9204 O   0  0  0  0  0  0  0  0  0  0  0  0
   -0.6790   -2.0739    2.1001 O   0  0  0  0  0  0  0  0  0  0  0  0
   -2.3378   -0.8376    0.4697 C   0  0  0  0  0  0  0  0  0  0  0  0
   -3.0671   -2.0076    0.3750 C   0  0  0  0  0  0  0  0  0  0  0  0
   -4.3408   -1.9621   -0.1438 C   0  0  0  0  0  0  0  0  0  0  0  0
   -4.8440   -0.7613   -0.5488 C   0  0  0  0  0  0  0  0  0  0  0  0
   -4.1217    0.4109   -0.4573 C   0  0  0  0  0  0  0  0  0  0  0  0
   -4.6714    1.6869   -0.8938 C   0  0  0  0  0  0  0  0  0  0  0  0
   -5.8479    1.7200   -1.3715 O   0  0  0  0  0  0  0  0  0  0  0  0
   -3.9022    2.8326   -0.7790 O   0  0  0  0  0  0  0  0  0  0  0  0
   -2.8466    0.3709    0.0610 C   0  0  0  0  0  0  0  0  0  0  0  0
    1.6062   -1.8075    0.3314 C   0  0  0  0  0  0  0  0  0  0  0  0
    3.6740    2.2852   -1.9654 H   0  0  0  0  0  0  0  0  0  0  0  0
    3.9494    3.3264   -0.5503 H   0  0  0  0  0  0  0  0  0  0  0  0
    5.1554    1.9592    1.3149 H   0  0  0  0  0  0  0  0  0  0  0  0
    4.9568    0.0738    2.9085 H   0  0  0  0  0  0  0  0  0  0  0  0
    3.3052   -1.7003    2.4720 H   0  0  0  0  0  0  0  0  0  0  0  0
    1.8499    1.3234   -1.8155 H   0  0  0  0  0  0  0  0  0  0  0  0
    2.3115   -0.3433   -2.2007 H   0  0  0  0  0  0  0  0  0  0  0  0
   -0.1824    0.6214   -0.8748 H   0  0  0  0  0  0  0  0  0  0  0  0
    0.0831   -0.6557   -2.0735 H   0  0  0  0  0  0  0  0  0  0  0  0
   -2.6529   -2.9489    0.7004 H   0  0  0  0  0  0  0  0  0  0  0  0
   -4.9328   -2.8556   -0.2302 H   0  0  0  0  0  0  0  0  0  0  0  0
   -5.8577   -0.6743   -0.9703 H   0  0  0  0  0  0  0  0  0  0  0  0
   -4.3057    3.7630   -0.9629 H   0  0  0  0  0  0  0  0  0  0  0  0
   -2.2528    1.2705    0.1474 H   0  0  0  0  0  0  0  0  0  0  0  0
    1.3887   -2.4167    1.2366 H   0  0  0  0  0  0  0  0  0  0  0  0
    1.9860   -2.5033   -0.4446 H   0  0  0  0  0  0  0  0  0  0  0  0
  1  2  1  0
  2  3  2  0
  3  4  1  0
  4  5  2  0
  5  6  1  0
  6  7  2  0
  7  8  1  0
  8  9  1  0
  9 10  1  0
 10 11  1  0
 11 12  2  0
 11 13  2  0
 11 14  1  0
 14 15  2  0
 15 16  1  0
 16 17  2  0
 17 18  1  0
 18 19  1  0
 19 20  2  0
 19 21  1  0
 18 22  2  0
 10 23  1  0
  7  2  1  0
 22 14  1  0
 23  6  1  0
  1 24  1  0
  1 25  1  0
  3 26  1  0
  4 27  1  0
  5 28  1  0
  8 29  1  0
  8 30  1  0
  9 31  1  0
  9 32  1  0
 15 33  1  0
 16 34  1  0
 17 35  1  0
 21 36  1  0
 22 37  1  0
 23 38  1  0
 23 39  1  0
M  END
$$$$
