@<TRIPOS>MOLECULE
*****
 39 41 0 0 0
SMALL
GASTEIGER

@<TRIPOS>ATOM
      1 N           3.7637    2.3740   -0.9329 N.pl3   1  UNL1       -0.3577
      2 C           3.6511    1.2927   -0.0174 C.ar    1  UNL1        0.0281
      3 C           4.4392    1.1922    1.1233 C.ar    1  UNL1       -0.0408
      4 C           4.3393    0.1524    2.0149 C.ar    1  UNL1       -0.0597
      5 C           3.4221   -0.8546    1.7938 C.ar    1  UNL1       -0.0569
      6 C           2.6218   -0.7890    0.6715 C.ar    1  UNL1       -0.0267
      7 C           2.7429    0.2787   -0.2196 C.ar    1  UNL1       -0.0210
      8 C           1.8666    0.2966   -1.3956 C.3     1  UNL1       -0.0112
      9 C           0.4870   -0.2277   -1.1139 C.3     1  UNL1        0.0249
     10 N           0.3978   -1.2071   -0.1064 N.3     1  UNL1       -0.1720
     11 S          -0.7206   -0.9239    1.1336 S.O2    1  UNL1        0.0612
     12 O          -0.4342    0.3197    1.9204 O.2     1  UNL1       -0.1528
     13 O          -0.6790   -2.0739    2.1001 O.2     1  UNL1       -0.1528
     14 C          -2.3378   -0.8376    0.4697 C.ar    1  UNL1        0.1063
     15 C          -3.0671   -2.0076    0.3750 C.ar    1  UNL1       -0.0353
     16 C          -4.3408   -1.9621   -0.1438 C.ar    1  UNL1       -0.0591
     17 C          -4.8440   -0.7613   -0.5488 C.ar    1  UNL1       -0.0477
     18 C          -4.1217    0.4109   -0.4573 C.ar    1  UNL1        0.0607
     19 C          -4.6714    1.6869   -0.8938 C.2     1  UNL1        0.3369
     20 O          -5.8479    1.7200   -1.3715 O.2     1  UNL1       -0.2451
     21 O          -3.9022    2.8326   -0.7790 O.3     1  UNL1       -0.4771
     22 C          -2.8466    0.3709    0.0610 C.ar    1  UNL1       -0.0214
     23 C           1.6062   -1.8075    0.3314 C.3     1  UNL1        0.0458
     24 H           3.6740    2.2852   -1.9654 H       1  UNL1        0.1423
     25 H           3.9494    3.3264   -0.5503 H       1  UNL1        0.1423
     26 H           5.1554    1.9592    1.3149 H       1  UNL1        0.0636
     27 H           4.9568    0.0738    2.9085 H       1  UNL1        0.0618
     28 H           3.3052   -1.7003    2.4720 H       1  UNL1        0.0621
     29 H           1.8499    1.3234   -1.8155 H       1  UNL1        0.0327
     30 H           2.3115   -0.3433   -2.2007 H       1  UNL1        0.0327
     31 H          -0.1824    0.6214   -0.8748 H       1  UNL1        0.0447
     32 H           0.0831   -0.6557   -2.0735 H       1  UNL1        0.0447
     33 H          -2.6529   -2.9489    0.7004 H       1  UNL1        0.0637
     34 H          -4.9328   -2.8556   -0.2302 H       1  UNL1        0.0618
     35 H          -5.8577   -0.6743   -0.9703 H       1  UNL1        0.0626
     36 H          -4.3057    3.7630   -0.9629 H       1  UNL1        0.2954
     37 H          -2.2528    1.2705    0.1474 H       1  UNL1        0.0645
     38 H           1.3887   -2.4167    1.2366 H       1  UNL1        0.0493
     39 H           1.9860   -2.5033   -0.4446 H       1  UNL1        0.0493
@<TRIPOS>BOND
     1     1     2    1
     2     2     3   ar
     3     3     4   ar
     4     4     5   ar
     5     5     6   ar
     6     6     7   ar
     7     7     8    1
     8     8     9    1
     9     9    10    1
    10    10    11    1
    11    11    12    2
    12    11    13    2
    13    11    14    1
    14    14    15   ar
    15    15    16   ar
    16    16    17   ar
    17    17    18   ar
    18    18    19    1
    19    19    20    2
    20    19    21    1
    21    18    22   ar
    22    10    23    1
    23     7     2   ar
    24    22    14   ar
    25    23     6    1
    26     1    24    1
    27     1    25    1
    28     3    26    1
    29     4    27    1
    30     5    28    1
    31     8    29    1
    32     8    30    1
    33     9    31    1
    34     9    32    1
    35    15    33    1
    36    16    34    1
    37    17    35    1
    38    21    36    1
    39    22    37    1
    40    23    38    1
    41    23    39    1
