@<TRIPOS>MOLECULE
*****
 61 65 0 0 0
SMALL
GASTEIGER

@<TRIPOS>ATOM
      1 C           6.4787    5.2944   -0.2633 C.3     1  UNL1       -0.0209
      2 C           5.7464    4.1560    0.3413 C.ar    1  UNL1        0.0563
      3 C           5.7944    2.8142   -0.0570 C.ar    1  UNL1        0.0322
      4 N           4.9748    2.0890    0.7601 N.ar    1  UNL1       -0.3055
      5 C           4.4288    2.9428    1.6425 C.ar    1  UNL1        0.1007
      6 N           4.9044    4.1714    1.3728 N.ar    1  UNL1       -0.2406
      7 C           4.9106    0.6823    0.4826 C.ar    1  UNL1        0.0497
      8 C           3.7042    0.0197    0.4059 C.ar    1  UNL1       -0.0165
      9 C           3.5305   -1.3067    0.1480 C.ar    1  UNL1        0.0362
     10 N           2.3297   -2.0242    0.0623 N.am    1  UNL1       -0.2814
     11 C           0.9921   -1.5909    0.2213 C.2     1  UNL1        0.2483
     12 O           0.8124   -0.3774    0.4806 O.2     1  UNL1       -0.2699
     13 C          -0.1782   -2.4508    0.1059 C.ar    1  UNL1        0.0388
     14 C          -0.1188   -3.7941   -0.2042 C.ar    1  UNL1       -0.0493
     15 C          -1.2360   -4.5959   -0.3036 C.ar    1  UNL1       -0.0564
     16 C          -2.4955   -4.0840   -0.0935 C.ar    1  UNL1       -0.0292
     17 C          -3.7431   -4.8839   -0.1826 C.3     1  UNL1       -0.0380
     18 C          -2.5558   -2.7444    0.2157 C.ar    1  UNL1        0.0372
     19 N          -3.8389   -2.1867    0.4503 N.pl3   1  UNL1       -0.2834
     20 C          -4.4357   -0.9439    0.7717 C.ar    1  UNL1        0.2200
     21 N          -4.4500   -0.7044    2.0818 N.ar    1  UNL1       -0.2226
     22 C          -4.9835    0.4296    2.5918 C.ar    1  UNL1        0.0332
     23 C          -5.5197    1.3457    1.7212 C.ar    1  UNL1       -0.0174
     24 C          -5.5119    1.1089    0.3532 C.ar    1  UNL1        0.0775
     25 N          -4.9643   -0.0377   -0.0668 N.ar    1  UNL1       -0.2142
     26 C          -6.0693    2.0334   -0.6234 C.ar    1  UNL1        0.0186
     27 C          -6.0062    1.6776   -1.9536 C.ar    1  UNL1        0.0367
     28 N          -6.5200    2.5186   -2.8854 N.ar    1  UNL1       -0.2626
     29 C          -7.0842    3.6833   -2.5281 C.ar    1  UNL1        0.0276
     30 C          -7.1687    4.0781   -1.2148 C.ar    1  UNL1       -0.0430
     31 C          -6.6475    3.2258   -0.2649 C.ar    1  UNL1       -0.0497
     32 C          -1.4407   -1.9373    0.3162 C.ar    1  UNL1       -0.0281
     33 C           4.7204   -1.9791   -0.0422 C.ar    1  UNL1       -0.0287
     34 C           5.9418   -1.3915    0.0188 C.ar    1  UNL1        0.0585
     35 C           6.0585   -0.0542    0.2814 C.ar    1  UNL1       -0.0261
     36 C           7.1803   -2.1839   -0.1970 C.3     1  UNL1        0.4175
     37 F           6.9438   -3.4849    0.2412 F       1  UNL1       -0.1659
     38 F           8.2465   -1.6199    0.4681 F       1  UNL1       -0.1659
     39 F           7.4496   -2.2960   -1.5563 F       1  UNL1       -0.1659
     40 H           6.0083    6.2286    0.0650 H       1  UNL1        0.0293
     41 H           7.5627    5.2428   -0.1588 H       1  UNL1        0.0293
     42 H           6.2822    5.2366   -1.3730 H       1  UNL1        0.0293
     43 H           6.4311    2.5257   -0.9080 H       1  UNL1        0.0831
     44 H           3.7508    2.5031    2.3606 H       1  UNL1        0.1032
     45 H           2.8366    0.6400    0.5710 H       1  UNL1        0.0657
     46 H           2.3709   -3.0467   -0.1517 H       1  UNL1        0.1551
     47 H           0.8155   -4.2828   -0.3850 H       1  UNL1        0.0625
     48 H          -1.1488   -5.6531   -0.5505 H       1  UNL1        0.0621
     49 H          -3.5424   -5.9453   -0.4260 H       1  UNL1        0.0278
     50 H          -4.3003   -4.8520    0.7771 H       1  UNL1        0.0278
     51 H          -4.3829   -4.4915   -1.0110 H       1  UNL1        0.0278
     52 H          -4.7152   -2.7628    0.4023 H       1  UNL1        0.1550
     53 H          -5.0151    0.6658    3.6554 H       1  UNL1        0.0831
     54 H          -5.9427    2.2432    2.1046 H       1  UNL1        0.0654
     55 H          -5.5553    0.7392   -2.2907 H       1  UNL1        0.0836
     56 H          -7.5067    4.3803   -3.2607 H       1  UNL1        0.0829
     57 H          -7.6319    5.0311   -0.9379 H       1  UNL1        0.0633
     58 H          -6.7162    3.5382    0.7536 H       1  UNL1        0.0625
     59 H          -1.5282   -0.8950    0.5589 H       1  UNL1        0.0644
     60 H           4.7085   -3.0551   -0.2568 H       1  UNL1        0.0642
     61 H           7.0391    0.4105    0.3291 H       1  UNL1        0.0644
@<TRIPOS>BOND
     1     1     2    1
     2     2     3   ar
     3     3     4   ar
     4     4     5   ar
     5     5     6   ar
     6     4     7    1
     7     7     8   ar
     8     8     9   ar
     9     9    10    1
    10    10    11   am
    11    11    12    2
    12    11    13    1
    13    13    14   ar
    14    14    15   ar
    15    15    16   ar
    16    16    17    1
    17    16    18   ar
    18    18    19    1
    19    19    20    1
    20    20    21   ar
    21    21    22   ar
    22    22    23   ar
    23    23    24   ar
    24    24    25   ar
    25    24    26    1
    26    26    27   ar
    27    27    28   ar
    28    28    29   ar
    29    29    30   ar
    30    30    31   ar
    31    18    32   ar
    32     9    33   ar
    33    33    34   ar
    34    34    35   ar
    35    34    36    1
    36    36    37    1
    37    36    38    1
    38    36    39    1
    39     6     2   ar
    40    35     7   ar
    41    32    13   ar
    42    25    20   ar
    43    31    26   ar
    44     1    40    1
    45     1    41    1
    46     1    42    1
    47     3    43    1
    48     5    44    1
    49     8    45    1
    50    10    46    1
    51    14    47    1
    52    15    48    1
    53    17    49    1
    54    17    50    1
    55    17    51    1
    56    19    52    1
    57    22    53    1
    58    23    54    1
    59    27    55    1
    60    29    56    1
    61    30    57    1
    62    31    58    1
    63    32    59    1
    64    33    60    1
    65    35    61    1
