@<TRIPOS>MOLECULE
*****
 46 49 0 0 0
SMALL
GASTEIGER

@<TRIPOS>ATOM
      1 C          -1.5919    3.9404    0.7256 C.3     1  UNL1        0.0573
      2 N          -1.5289    2.4692    0.7961 N.am    1  UNL1       -0.1617
      3 C          -1.2392    1.5783   -0.2663 C.2     1  UNL1        0.3256
      4 O          -0.9905    1.9343   -1.4436 O.2     1  UNL1       -0.2525
      5 C          -1.3038    0.2308    0.3365 C.3     1  UNL1        0.2404
      6 C          -2.4166   -0.6019   -0.2391 C.3     1  UNL1        0.0071
      7 C          -2.1191   -2.0490   -0.3522 C.3     1  UNL1       -0.0265
      8 C          -3.3831   -2.8372   -0.0802 C.3     1  UNL1       -0.0594
      9 C          -1.6048   -2.4010   -1.7434 C.3     1  UNL1       -0.0594
     10 C          -1.0663   -2.5266    0.6269 C.3     1  UNL1       -0.0220
     11 C           0.1772   -1.7627    0.2696 C.ar    1  UNL1       -0.0394
     12 C           1.3857   -2.4085    0.0939 C.ar    1  UNL1       -0.0576
     13 C           2.4681   -1.6182   -0.2328 C.ar    1  UNL1       -0.0537
     14 C           2.3823   -0.2447   -0.3845 C.ar    1  UNL1       -0.0146
     15 C           3.5501    0.5577   -0.7305 C.ar    1  UNL1        0.0183
     16 C           3.4724    1.7129   -1.4700 C.ar    1  UNL1        0.0385
     17 N           4.5982    2.3964   -1.7470 N.ar    1  UNL1       -0.2431
     18 C           5.8086    1.9622   -1.3069 C.ar    1  UNL1        0.1159
     19 N           5.9077    0.8354   -0.5823 N.ar    1  UNL1       -0.2431
     20 C           4.8007    0.1563   -0.3055 C.ar    1  UNL1        0.0385
     21 C           1.1252    0.3415   -0.1912 C.ar    1  UNL1       -0.0463
     22 C           0.0223   -0.4026    0.1341 C.ar    1  UNL1        0.0098
     23 N          -1.6273    0.4680    1.7007 N.2     1  UNL1       -0.0941
     24 C          -1.7537    1.7023    1.9648 C.2     1  UNL1        0.3727
     25 N          -2.0779    2.3099    3.2448 N.pl3   1  UNL1       -0.2512
     26 H          -2.1549    4.3054    1.5834 H       1  UNL1        0.0602
     27 H          -2.1109    4.2134   -0.2013 H       1  UNL1        0.0602
     28 H          -0.5370    4.2732    0.7144 H       1  UNL1        0.0602
     29 H          -2.6284   -0.2027   -1.2648 H       1  UNL1        0.0317
     30 H          -3.3557   -0.4523    0.3318 H       1  UNL1        0.0317
     31 H          -3.2865   -3.4638    0.8476 H       1  UNL1        0.0235
     32 H          -3.6151   -3.5388   -0.8992 H       1  UNL1        0.0235
     33 H          -4.2516   -2.1538    0.1033 H       1  UNL1        0.0235
     34 H          -0.5178   -2.2166   -1.8210 H       1  UNL1        0.0235
     35 H          -1.7501   -3.5143   -1.8335 H       1  UNL1        0.0235
     36 H          -2.2016   -1.8462   -2.4666 H       1  UNL1        0.0235
     37 H          -0.9196   -3.5983    0.5075 H       1  UNL1        0.0318
     38 H          -1.3432   -2.2839    1.6718 H       1  UNL1        0.0318
     39 H           1.4789   -3.4783    0.2068 H       1  UNL1        0.0621
     40 H           3.4541   -2.0728   -0.3852 H       1  UNL1        0.0624
     41 H           2.4937    2.0574   -1.8218 H       1  UNL1        0.0837
     42 H           6.7291    2.4997   -1.5200 H       1  UNL1        0.1047
     43 H           4.8703   -0.7693    0.2882 H       1  UNL1        0.0837
     44 H           1.0561    1.4202   -0.3102 H       1  UNL1        0.0628
     45 H          -1.3990    2.3242    4.0338 H       1  UNL1        0.2412
     46 H          -3.0060    2.7545    3.4175 H       1  UNL1        0.2412
@<TRIPOS>BOND
     1     1     2    1
     2     2     3   am
     3     3     4    2
     4     3     5    1
     5     5     6    1
     6     6     7    1
     7     7     8    1
     8     7     9    1
     9     7    10    1
    10    10    11    1
    11    11    12   ar
    12    12    13   ar
    13    13    14   ar
    14    14    15    1
    15    15    16   ar
    16    16    17   ar
    17    17    18   ar
    18    18    19   ar
    19    19    20   ar
    20    14    21   ar
    21    21    22   ar
    22     5    23    1
    23    23    24    2
    24    24    25    1
    25    24     2    1
    26    22     5    1
    27    22    11   ar
    28    20    15   ar
    29     1    26    1
    30     1    27    1
    31     1    28    1
    32     6    29    1
    33     6    30    1
    34     8    31    1
    35     8    32    1
    36     8    33    1
    37     9    34    1
    38     9    35    1
    39     9    36    1
    40    10    37    1
    41    10    38    1
    42    12    39    1
    43    13    40    1
    44    16    41    1
    45    18    42    1
    46    20    43    1
    47    21    44    1
    48    25    45    1
    49    25    46    1
