@<TRIPOS>MOLECULE
*****
 72 78 0 0 0
SMALL
GASTEIGER

@<TRIPOS>ATOM
      1 C          -8.1033   -3.1453   -0.4365 C.3     1  UNL1        0.0032
      2 N          -6.7172   -2.7655   -0.6051 N.am    1  UNL1       -0.3024
      3 C          -6.0671   -2.7969   -1.9151 C.3     1  UNL1        0.0032
      4 C          -5.9769   -2.3578    0.5337 C.2     1  UNL1        0.2627
      5 O          -6.5644   -2.3466    1.6507 O.2     1  UNL1       -0.2684
      6 C          -4.5716   -1.9558    0.4384 C.ar    1  UNL1        0.1070
      7 C          -3.5293   -2.7618    0.0852 C.ar    1  UNL1       -0.0209
      8 C          -2.4050   -1.9711    0.1130 C.ar    1  UNL1        0.0378
      9 C          -1.0544   -2.2251   -0.1661 C.ar    1  UNL1        0.0419
     10 N          -0.2074   -1.1808   -0.0518 N.ar    1  UNL1       -0.2219
     11 C          -0.5984    0.0453    0.3069 C.ar    1  UNL1        0.2224
     12 N           0.3440    1.1316    0.3554 N.pl3   1  UNL1       -0.2685
     13 C           1.6667    0.9135   -0.0881 C.ar    1  UNL1        0.1250
     14 C           2.5948    1.9318   -0.1255 C.ar    1  UNL1       -0.0208
     15 C           3.8915    1.7372   -0.5757 C.ar    1  UNL1       -0.0449
     16 C           4.3095    0.5073   -1.0068 C.ar    1  UNL1        0.0551
     17 C           5.6243    0.1911   -1.5258 C.2     1  UNL1        0.2482
     18 O           5.7004   -0.3876   -2.6683 O.2     1  UNL1       -0.2699
     19 N           6.8480    0.4749   -0.8602 N.am    1  UNL1       -0.2945
     20 C           6.8779    1.1258    0.4252 C.3     1  UNL1        0.0304
     21 C           8.1924    1.0179    1.1416 C.3     1  UNL1        0.0237
     22 C           8.4744   -0.3891    1.5960 C.3     1  UNL1       -0.0346
     23 C           9.1835   -1.0249    0.3948 C.3     1  UNL1       -0.0346
     24 C           9.2569    0.0814   -0.6283 C.3     1  UNL1        0.0237
     25 C           8.0851    0.0806   -1.5367 C.3     1  UNL1        0.0304
     26 N           9.2694    1.3035    0.1808 N.3     1  UNL1       -0.3075
     27 C           3.3377   -0.5040   -0.9529 C.ar    1  UNL1        0.0418
     28 N           2.0909   -0.2890   -0.5136 N.ar    1  UNL1       -0.2394
     29 N          -1.8954    0.2905    0.5772 N.ar    1  UNL1       -0.1962
     30 C          -2.8044   -0.7175    0.4805 C.ar    1  UNL1        0.1466
     31 N          -4.1177   -0.6974    0.6813 N.ar    1  UNL1       -0.3177
     32 C          -4.9939    0.3992    1.0867 C.3     1  UNL1        0.0396
     33 C          -6.0038    0.5914   -0.0303 C.3     1  UNL1       -0.0289
     34 C          -5.8825    2.0466   -0.4377 C.3     1  UNL1       -0.0388
     35 C          -6.3819    2.8909    0.6794 C.3     1  UNL1       -0.0498
     36 C          -5.3500    2.6883    1.7681 C.3     1  UNL1       -0.0481
     37 C          -4.3300    1.7184    1.1811 C.3     1  UNL1       -0.0199
     38 C          -4.3598    2.2023   -0.2652 C.3     1  UNL1       -0.0454
     39 H          -8.6375   -2.2175   -0.0859 H       1  UNL1        0.0428
     40 H          -8.1791   -3.8955    0.3762 H       1  UNL1        0.0428
     41 H          -8.5403   -3.5040   -1.3960 H       1  UNL1        0.0428
     42 H          -6.7716   -2.4680   -2.6951 H       1  UNL1        0.0428
     43 H          -5.1759   -2.1351   -1.9209 H       1  UNL1        0.0428
     44 H          -5.7074   -3.8379   -2.0834 H       1  UNL1        0.0428
     45 H          -3.5393   -3.8031   -0.1692 H       1  UNL1        0.0647
     46 H          -0.7639   -3.2134   -0.4512 H       1  UNL1        0.0838
     47 H           0.0896    2.0740    0.7107 H       1  UNL1        0.1564
     48 H           2.3348    2.9267    0.1995 H       1  UNL1        0.0652
     49 H           4.5994    2.5695   -0.6042 H       1  UNL1        0.0627
     50 H           6.6879    2.2360    0.3140 H       1  UNL1        0.0480
     51 H           6.0908    0.6677    1.0880 H       1  UNL1        0.0480
     52 H           8.2994    1.7719    1.9493 H       1  UNL1        0.0476
     53 H           7.5533   -0.9573    1.8696 H       1  UNL1        0.0281
     54 H           9.1505   -0.4200    2.4768 H       1  UNL1        0.0281
     55 H          10.2019   -1.3572    0.7129 H       1  UNL1        0.0281
     56 H           8.6133   -1.8891    0.0151 H       1  UNL1        0.0281
     57 H          10.2136    0.0118   -1.2128 H       1  UNL1        0.0476
     58 H           8.2788    0.8220   -2.3677 H       1  UNL1        0.0480
     59 H           7.9216   -0.9248   -1.9803 H       1  UNL1        0.0480
     60 H          10.1767    1.3808    0.6711 H       1  UNL1        0.1226
     61 H           3.6502   -1.4765   -1.2885 H       1  UNL1        0.0838
     62 H          -5.5032    0.0860    2.0329 H       1  UNL1        0.0531
     63 H          -5.8315   -0.0903   -0.8845 H       1  UNL1        0.0288
     64 H          -7.0158    0.4712    0.4069 H       1  UNL1        0.0288
     65 H          -6.2321    2.2683   -1.4248 H       1  UNL1        0.0302
     66 H          -6.3805    3.9565    0.3201 H       1  UNL1        0.0268
     67 H          -7.4040    2.6325    1.0328 H       1  UNL1        0.0268
     68 H          -5.8543    2.2105    2.6304 H       1  UNL1        0.0269
     69 H          -4.8895    3.6278    2.0947 H       1  UNL1        0.0269
     70 H          -3.3659    1.7771    1.6442 H       1  UNL1        0.0321
     71 H          -4.0914    3.2724   -0.3069 H       1  UNL1        0.0271
     72 H          -3.8116    1.5741   -0.9602 H       1  UNL1        0.0271
@<TRIPOS>BOND
     1     1     2    1
     2     2     3    1
     3     2     4   am
     4     4     5    2
     5     4     6    1
     6     6     7   ar
     7     7     8   ar
     8     8     9   ar
     9     9    10   ar
    10    10    11   ar
    11    11    12    1
    12    12    13    1
    13    13    14   ar
    14    14    15   ar
    15    15    16   ar
    16    16    17    1
    17    17    18    2
    18    17    19   am
    19    19    20    1
    20    20    21    1
    21    21    22    1
    22    22    23    1
    23    23    24    1
    24    24    25    1
    25    24    26    1
    26    16    27   ar
    27    27    28   ar
    28    11    29   ar
    29    29    30   ar
    30    30    31   ar
    31    31    32    1
    32    32    33    1
    33    33    34    1
    34    34    35    1
    35    35    36    1
    36    36    37    1
    37    37    38    1
    38    31     6   ar
    39    37    32    1
    40    30     8   ar
    41    38    34    1
    42    28    13   ar
    43    25    19    1
    44    26    21    1
    45     1    39    1
    46     1    40    1
    47     1    41    1
    48     3    42    1
    49     3    43    1
    50     3    44    1
    51     7    45    1
    52     9    46    1
    53    12    47    1
    54    14    48    1
    55    15    49    1
    56    20    50    1
    57    20    51    1
    58    21    52    1
    59    22    53    1
    60    22    54    1
    61    23    55    1
    62    23    56    1
    63    24    57    1
    64    25    58    1
    65    25    59    1
    66    26    60    1
    67    27    61    1
    68    32    62    1
    69    33    63    1
    70    33    64    1
    71    34    65    1
    72    35    66    1
    73    35    67    1
    74    36    68    1
    75    36    69    1
    76    37    70    1
    77    38    71    1
    78    38    72    1
