
     RDKit          3D

 66 70  0  0  0  0  0  0  0  0999 V2000
    7.0825   -1.2658    1.9387 C   0  0  0  0  0  0  0  0  0  0  0  0
    7.1590   -0.2401    0.9298 N   0  0  0  0  0  0  0  0  0  0  0  0
    6.4059   -0.5339   -0.2544 C   0  0  1  0  0  0  0  0  0  0  0  0
    6.9450   -1.8225   -0.8571 C   0  0  0  0  0  0  0  0  0  0  0  0
    4.9730   -0.6587    0.1207 C   0  0  0  0  0  0  0  0  0  0  0  0
    4.5469   -0.5216    1.2959 O   0  0  0  0  0  0  0  0  0  0  0  0
    3.9871   -0.9517   -0.8876 N   0  0  0  0  0  0  0  0  0  0  0  0
    2.6187   -1.0701   -0.5254 C   0  0  0  0  0  0  0  0  0  0  0  0
    2.0315   -2.2671   -0.1478 C   0  0  0  0  0  0  0  0  0  0  0  0
    0.6863   -2.2913    0.1901 C   0  0  0  0  0  0  0  0  0  0  0  0
   -0.0779   -1.1455    0.1573 C   0  0  0  0  0  0  0  0  0  0  0  0
   -1.4913   -1.1021    0.4975 C   0  0  0  0  0  0  0  0  0  0  0  0
   -2.5377   -1.2684   -0.3980 C   0  0  0  0  0  0  0  0  0  0  0  0
   -2.4248   -1.5095   -1.8329 C   0  0  0  0  0  0  0  0  0  0  0  0
   -1.8229   -2.6263   -2.3655 C   0  0  0  0  0  0  0  0  0  0  0  0
   -1.7105   -2.8622   -3.7172 C   0  0  0  0  0  0  0  0  0  0  0  0
   -2.2202   -1.9448   -4.5653 N   0  0  0  0  0  0  0  0  0  0  0  0
   -2.8223   -0.8295   -4.1142 C   0  0  0  0  0  0  0  0  0  0  0  0
   -3.3566    0.1299   -5.1064 C   0  0  0  0  0  0  0  0  0  0  0  0
   -2.9334   -0.5956   -2.7377 C   0  0  0  0  0  0  0  0  0  0  0  0
   -3.6528   -1.1561    0.3460 N   0  0  0  0  0  0  0  0  0  0  0  0
   -3.3543   -0.9318    1.6384 C   0  0  0  0  0  0  0  0  0  0  0  0
   -4.0950   -0.7451    2.7912 C   0  0  0  0  0  0  0  0  0  0  0  0
   -3.5296   -0.5270    4.0283 C   0  0  0  0  0  0  0  0  0  0  0  0
   -4.3598   -0.3285    5.2592 C   0  0  0  0  0  0  0  0  0  0  0  0
   -2.1370   -0.4996    4.0818 C   0  0  0  0  0  0  0  0  0  0  0  0
   -1.4154   -0.6865    2.9293 C   0  0  0  0  0  0  0  0  0  0  0  0
   -2.0049   -0.8959    1.7456 N   0  0  0  0  0  0  0  0  0  0  0  0
    0.5364    0.0239   -0.2218 C   0  0  0  0  0  0  0  0  0  0  0  0
   -0.2256    1.2385   -0.2722 C   0  0  0  0  0  0  0  0  0  0  0  0
   -0.8641    2.2601   -0.3317 C   0  0  0  0  0  0  0  0  0  0  0  0
   -1.6137    3.4769   -0.3830 C   0  0  0  0  0  0  0  0  0  0  0  0
   -2.5389    3.7790    0.5928 C   0  0  0  0  0  0  0  0  0  0  0  0
   -3.2828    4.9322    0.5870 C   0  0  0  0  0  0  0  0  0  0  0  0
   -3.1298    5.8523   -0.4168 C   0  0  0  0  0  0  0  0  0  0  0  0
   -2.2182    5.5826   -1.4025 C   0  0  0  0  0  0  0  0  0  0  0  0
   -1.4752    4.4272   -1.3934 C   0  0  0  0  0  0  0  0  0  0  0  0
    1.8605    0.0212   -0.5492 N   0  0  0  0  0  0  0  0  0  0  0  0
    6.8719   -2.2559    1.4430 H   0  0  0  0  0  0  0  0  0  0  0  0
    6.3421   -1.0125    2.7110 H   0  0  0  0  0  0  0  0  0  0  0  0
    8.1140   -1.3333    2.3905 H   0  0  0  0  0  0  0  0  0  0  0  0
    6.8133    0.6495    1.3249 H   0  0  0  0  0  0  0  0  0  0  0  0
    6.5587    0.3063   -0.9626 H   0  0  0  0  0  0  0  0  0  0  0  0
    8.0206   -1.9191   -0.5929 H   0  0  0  0  0  0  0  0  0  0  0  0
    6.8200   -1.7476   -1.9704 H   0  0  0  0  0  0  0  0  0  0  0  0
    6.3416   -2.6678   -0.4825 H   0  0  0  0  0  0  0  0  0  0  0  0
    4.3398   -1.0653   -1.8625 H   0  0  0  0  0  0  0  0  0  0  0  0
    2.6566   -3.1358   -0.1343 H   0  0  0  0  0  0  0  0  0  0  0  0
    0.2413   -3.2290    0.4822 H   0  0  0  0  0  0  0  0  0  0  0  0
   -1.4153   -3.3602   -1.6900 H   0  0  0  0  0  0  0  0  0  0  0  0
   -1.2373   -3.7402   -4.1400 H   0  0  0  0  0  0  0  0  0  0  0  0
   -3.5517   -0.3881   -6.0640 H   0  0  0  0  0  0  0  0  0  0  0  0
   -2.6148    0.9373   -5.3266 H   0  0  0  0  0  0  0  0  0  0  0  0
   -4.3109    0.5419   -4.7190 H   0  0  0  0  0  0  0  0  0  0  0  0
   -3.4227    0.3094   -2.4155 H   0  0  0  0  0  0  0  0  0  0  0  0
   -5.1719   -0.7715    2.7187 H   0  0  0  0  0  0  0  0  0  0  0  0
   -4.9558   -1.2744    5.3678 H   0  0  0  0  0  0  0  0  0  0  0  0
   -3.6780   -0.2412    6.1096 H   0  0  0  0  0  0  0  0  0  0  0  0
   -5.0743    0.4988    5.1600 H   0  0  0  0  0  0  0  0  0  0  0  0
   -1.6708   -0.3287    5.0503 H   0  0  0  0  0  0  0  0  0  0  0  0
   -0.3437   -0.6632    2.9829 H   0  0  0  0  0  0  0  0  0  0  0  0
   -2.6902    3.0659    1.4146 H   0  0  0  0  0  0  0  0  0  0  0  0
   -3.9907    5.1230    1.3690 H   0  0  0  0  0  0  0  0  0  0  0  0
   -3.7079    6.7779   -0.4464 H   0  0  0  0  0  0  0  0  0  0  0  0
   -2.0774    6.2834   -2.1991 H   0  0  0  0  0  0  0  0  0  0  0  0
   -0.7446    4.1941   -2.1684 H   0  0  0  0  0  0  0  0  0  0  0  0
  1  2  1  0
  2  3  1  0
  3  4  1  0
  3  5  1  0
  5  6  2  0
  5  7  1  0
  7  8  1  0
  8  9  2  0
  9 10  1  0
 10 11  2  0
 11 12  1  0
 12 13  2  0
 13 14  1  0
 14 15  2  0
 15 16  1  0
 16 17  2  0
 17 18  1  0
 18 19  1  0
 18 20  2  0
 13 21  1  0
 21 22  2  0
 22 23  1  0
 23 24  2  0
 24 25  1  0
 24 26  1  0
 26 27  2  0
 27 28  1  0
 11 29  1  0
 29 30  1  0
 30 31  3  0
 31 32  1  0
 32 33  2  0
 33 34  1  0
 34 35  2  0
 35 36  1  0
 36 37  2  0
 29 38  2  0
 38  8  1  0
 28 12  1  0
 37 32  1  0
 20 14  1  0
 28 22  1  0
  1 39  1  0
  1 40  1  0
  1 41  1  0
  2 42  1  0
  3 43  1  6
  4 44  1  0
  4 45  1  0
  4 46  1  0
  7 47  1  0
  9 48  1  0
 10 49  1  0
 15 50  1  0
 16 51  1  0
 19 52  1  0
 19 53  1  0
 19 54  1  0
 20 55  1  0
 23 56  1  0
 25 57  1  0
 25 58  1  0
 25 59  1  0
 26 60  1  0
 27 61  1  0
 33 62  1  0
 34 63  1  0
 35 64  1  0
 36 65  1  0
 37 66  1  0
M  END
$$$$
