@<TRIPOS>MOLECULE
*****
 66 70 0 0 0
SMALL
GASTEIGER

@<TRIPOS>ATOM
      1 C           7.0825   -1.2658    1.9387 C.3     1  UNL1       -0.0151
      2 N           7.1590   -0.2401    0.9298 N.3     1  UNL1       -0.3089
      3 C           6.4059   -0.5339   -0.2544 C.3     1  UNL1        0.0820
      4 C           6.9450   -1.8225   -0.8571 C.3     1  UNL1       -0.0411
      5 C           4.9730   -0.6587    0.1207 C.2     1  UNL1        0.2350
      6 O           4.5469   -0.5216    1.2959 O.2     1  UNL1       -0.2737
      7 N           3.9871   -0.9517   -0.8876 N.am    1  UNL1       -0.2691
      8 C           2.6187   -1.0701   -0.5254 C.ar    1  UNL1        0.1263
      9 C           2.0315   -2.2671   -0.1478 C.ar    1  UNL1       -0.0208
     10 C           0.6863   -2.2913    0.1901 C.ar    1  UNL1       -0.0466
     11 C          -0.0779   -1.1455    0.1573 C.ar    1  UNL1        0.0349
     12 C          -1.4913   -1.1021    0.4975 C.ar    1  UNL1        0.0837
     13 C          -2.5377   -1.2684   -0.3980 C.ar    1  UNL1        0.0978
     14 C          -2.4248   -1.5095   -1.8329 C.ar    1  UNL1        0.0056
     15 C          -1.8229   -2.6263   -2.3655 C.ar    1  UNL1       -0.0343
     16 C          -1.7105   -2.8622   -3.7172 C.ar    1  UNL1        0.0285
     17 N          -2.2202   -1.9448   -4.5653 N.ar    1  UNL1       -0.2601
     18 C          -2.8223   -0.8295   -4.1142 C.ar    1  UNL1        0.0388
     19 C          -3.3566    0.1299   -5.1064 C.3     1  UNL1       -0.0223
     20 C          -2.9334   -0.5956   -2.7377 C.ar    1  UNL1       -0.0314
     21 N          -3.6528   -1.1561    0.3460 N.ar    1  UNL1       -0.2272
     22 C          -3.3543   -0.9318    1.6384 C.ar    1  UNL1        0.1390
     23 C          -4.0950   -0.7451    2.7912 C.ar    1  UNL1       -0.0158
     24 C          -3.5296   -0.5270    4.0283 C.ar    1  UNL1       -0.0456
     25 C          -4.3598   -0.3285    5.2592 C.3     1  UNL1       -0.0395
     26 C          -2.1370   -0.4996    4.0818 C.ar    1  UNL1       -0.0421
     27 C          -1.4154   -0.6865    2.9293 C.ar    1  UNL1        0.0120
     28 N          -2.0049   -0.8959    1.7456 N.ar    1  UNL1       -0.2986
     29 C           0.5364    0.0239   -0.2218 C.ar    1  UNL1        0.1250
     30 C          -0.2256    1.2385   -0.2722 C.1     1  UNL1       -0.0404
     31 C          -0.8641    2.2601   -0.3317 C.1     1  UNL1       -0.0595
     32 C          -1.6137    3.4769   -0.3830 C.ar    1  UNL1        0.0253
     33 C          -2.5389    3.7790    0.5928 C.ar    1  UNL1       -0.0463
     34 C          -3.2828    4.9322    0.5870 C.ar    1  UNL1       -0.0606
     35 C          -3.1298    5.8523   -0.4168 C.ar    1  UNL1       -0.0617
     36 C          -2.2182    5.5826   -1.4025 C.ar    1  UNL1       -0.0606
     37 C          -1.4752    4.4272   -1.3934 C.ar    1  UNL1       -0.0463
     38 N           1.8605    0.0212   -0.5492 N.ar    1  UNL1       -0.2229
     39 H           6.8719   -2.2559    1.4430 H       1  UNL1        0.0388
     40 H           6.3421   -1.0125    2.7110 H       1  UNL1        0.0388
     41 H           8.1140   -1.3333    2.3905 H       1  UNL1        0.0388
     42 H           6.8133    0.6495    1.3249 H       1  UNL1        0.1223
     43 H           6.5587    0.3063   -0.9626 H       1  UNL1        0.0554
     44 H           8.0206   -1.9191   -0.5929 H       1  UNL1        0.0249
     45 H           6.8200   -1.7476   -1.9704 H       1  UNL1        0.0249
     46 H           6.3416   -2.6678   -0.4825 H       1  UNL1        0.0249
     47 H           4.3398   -1.0653   -1.8625 H       1  UNL1        0.1563
     48 H           2.6566   -3.1358   -0.1343 H       1  UNL1        0.0652
     49 H           0.2413   -3.2290    0.4822 H       1  UNL1        0.0626
     50 H          -1.4153   -3.3602   -1.6900 H       1  UNL1        0.0639
     51 H          -1.2373   -3.7402   -4.1400 H       1  UNL1        0.0830
     52 H          -3.5517   -0.3881   -6.0640 H       1  UNL1        0.0292
     53 H          -2.6148    0.9373   -5.3266 H       1  UNL1        0.0292
     54 H          -4.3109    0.5419   -4.7190 H       1  UNL1        0.0292
     55 H          -3.4227    0.3094   -2.4155 H       1  UNL1        0.0642
     56 H          -5.1719   -0.7715    2.7187 H       1  UNL1        0.0657
     57 H          -4.9558   -1.2744    5.3678 H       1  UNL1        0.0278
     58 H          -3.6780   -0.2412    6.1096 H       1  UNL1        0.0278
     59 H          -5.0743    0.4988    5.1600 H       1  UNL1        0.0278
     60 H          -1.6708   -0.3287    5.0503 H       1  UNL1        0.0635
     61 H          -0.3437   -0.6632    2.9829 H       1  UNL1        0.0813
     62 H          -2.6902    3.0659    1.4146 H       1  UNL1        0.0630
     63 H          -3.9907    5.1230    1.3690 H       1  UNL1        0.0618
     64 H          -3.7079    6.7779   -0.4464 H       1  UNL1        0.0618
     65 H          -2.0774    6.2834   -2.1991 H       1  UNL1        0.0618
     66 H          -0.7446    4.1941   -2.1684 H       1  UNL1        0.0630
@<TRIPOS>BOND
     1     1     2    1
     2     2     3    1
     3     3     4    1
     4     3     5    1
     5     5     6    2
     6     5     7   am
     7     7     8    1
     8     8     9   ar
     9     9    10   ar
    10    10    11   ar
    11    11    12    1
    12    12    13   ar
    13    13    14    1
    14    14    15   ar
    15    15    16   ar
    16    16    17   ar
    17    17    18   ar
    18    18    19    1
    19    18    20   ar
    20    13    21   ar
    21    21    22   ar
    22    22    23   ar
    23    23    24   ar
    24    24    25    1
    25    24    26   ar
    26    26    27   ar
    27    27    28   ar
    28    11    29   ar
    29    29    30    1
    30    30    31    3
    31    31    32    1
    32    32    33   ar
    33    33    34   ar
    34    34    35   ar
    35    35    36   ar
    36    36    37   ar
    37    29    38   ar
    38    38     8   ar
    39    28    12   ar
    40    37    32   ar
    41    20    14   ar
    42    28    22   ar
    43     1    39    1
    44     1    40    1
    45     1    41    1
    46     2    42    1
    47     3    43    1
    48     4    44    1
    49     4    45    1
    50     4    46    1
    51     7    47    1
    52     9    48    1
    53    10    49    1
    54    15    50    1
    55    16    51    1
    56    19    52    1
    57    19    53    1
    58    19    54    1
    59    20    55    1
    60    23    56    1
    61    25    57    1
    62    25    58    1
    63    25    59    1
    64    26    60    1
    65    27    61    1
    66    33    62    1
    67    34    63    1
    68    35    64    1
    69    36    65    1
    70    37    66    1
