
     RDKit          3D

 33 34  0  0  0  0  0  0  0  0999 V2000
   -4.5853   -0.6934    1.2531 C   0  0  0  0  0  0  0  0  0  0  0  0
   -4.6711    0.3445    0.1713 C   0  0  0  0  0  0  0  0  0  0  0  0
   -4.1053   -0.1063   -1.1336 C   0  0  0  0  0  0  0  0  0  0  0  0
   -2.6404   -0.4640   -0.9919 C   0  0  0  0  0  0  0  0  0  0  0  0
   -1.8892    0.6444   -0.5528 O   0  0  0  0  0  0  0  0  0  0  0  0
   -0.5315    0.5358   -0.3581 C   0  0  0  0  0  0  0  0  0  0  0  0
    0.0815   -0.6670   -0.5974 C   0  0  0  0  0  0  0  0  0  0  0  0
    1.4239   -0.8011   -0.4125 C   0  0  0  0  0  0  0  0  0  0  0  0
    2.2124    0.2716    0.0227 C   0  0  0  0  0  0  0  0  0  0  0  0
    3.6324    0.0101    0.1844 C   0  0  0  0  0  0  0  0  0  0  0  0
    4.5063    0.9838    0.6057 C   0  0  0  0  0  0  0  0  0  0  0  0
    5.8742    0.7190    0.7578 C   0  0  0  0  0  0  0  0  0  0  0  0
    6.3318   -0.5125    0.4847 N   0  0  0  0  0  0  0  0  0  0  0  0
    5.4807   -1.4644    0.0734 C   0  0  0  0  0  0  0  0  0  0  0  0
    4.1743   -1.2015   -0.0691 N   0  0  0  0  0  0  0  0  0  0  0  0
    1.5802    1.4500    0.2518 C   0  0  0  0  0  0  0  0  0  0  0  0
    0.2206    1.5958    0.0674 C   0  0  0  0  0  0  0  0  0  0  0  0
   -5.5913   -0.8353    1.7278 H   0  0  0  0  0  0  0  0  0  0  0  0
   -3.9187   -0.3716    2.1051 H   0  0  0  0  0  0  0  0  0  0  0  0
   -4.2019   -1.6572    0.8443 H   0  0  0  0  0  0  0  0  0  0  0  0
   -4.0693    1.2264    0.5179 H   0  0  0  0  0  0  0  0  0  0  0  0
   -5.7183    0.6636    0.0485 H   0  0  0  0  0  0  0  0  0  0  0  0
   -4.1662    0.7451   -1.8427 H   0  0  0  0  0  0  0  0  0  0  0  0
   -4.6504   -0.9400   -1.5869 H   0  0  0  0  0  0  0  0  0  0  0  0
   -2.5247   -1.2759   -0.2534 H   0  0  0  0  0  0  0  0  0  0  0  0
   -2.2156   -0.8427   -1.9440 H   0  0  0  0  0  0  0  0  0  0  0  0
   -0.4580   -1.5463   -0.9363 H   0  0  0  0  0  0  0  0  0  0  0  0
    1.8993   -1.7540   -0.6037 H   0  0  0  0  0  0  0  0  0  0  0  0
    4.1501    1.9876    0.8311 H   0  0  0  0  0  0  0  0  0  0  0  0
    6.5394    1.5201    1.0955 H   0  0  0  0  0  0  0  0  0  0  0  0
    5.8842   -2.4420   -0.1368 H   0  0  0  0  0  0  0  0  0  0  0  0
    2.1885    2.3039    0.5950 H   0  0  0  0  0  0  0  0  0  0  0  0
   -0.2426    2.5735    0.2677 H   0  0  0  0  0  0  0  0  0  0  0  0
  1  2  1  0
  2  3  1  0
  3  4  1  0
  4  5  1  0
  5  6  1  0
  6  7  2  0
  7  8  1  0
  8  9  2  0
  9 10  1  0
 10 11  2  0
 11 12  1  0
 12 13  2  0
 13 14  1  0
 14 15  2  0
  9 16  1  0
 16 17  2  0
 17  6  1  0
 15 10  1  0
  1 18  1  0
  1 19  1  0
  1 20  1  0
  2 21  1  0
  2 22  1  0
  3 23  1  0
  3 24  1  0
  4 25  1  0
  4 26  1  0
  7 27  1  0
  8 28  1  0
 11 29  1  0
 12 30  1  0
 14 31  1  0
 16 32  1  0
 17 33  1  0
M  END
$$$$
