@<TRIPOS>MOLECULE
*****
 33 34 0 0 0
SMALL
GASTEIGER

@<TRIPOS>ATOM
      1 C          -4.5853   -0.6934    1.2531 C.3     1  UNL1       -0.0652
      2 C          -4.6711    0.3445    0.1713 C.3     1  UNL1       -0.0528
      3 C          -4.1053   -0.1063   -1.1336 C.3     1  UNL1       -0.0189
      4 C          -2.6404   -0.4640   -0.9919 C.3     1  UNL1        0.0896
      5 O          -1.8892    0.6444   -0.5528 O.3     1  UNL1       -0.4920
      6 C          -0.5315    0.5358   -0.3581 C.ar    1  UNL1        0.1205
      7 C           0.0815   -0.6670   -0.5974 C.ar    1  UNL1       -0.0193
      8 C           1.4239   -0.8011   -0.4125 C.ar    1  UNL1       -0.0491
      9 C           2.2124    0.2716    0.0227 C.ar    1  UNL1        0.0007
     10 C           3.6324    0.0101    0.1844 C.ar    1  UNL1        0.0741
     11 C           4.5063    0.9838    0.6057 C.ar    1  UNL1       -0.0175
     12 C           5.8742    0.7190    0.7578 C.ar    1  UNL1        0.0313
     13 N           6.3318   -0.5125    0.4847 N.ar    1  UNL1       -0.2437
     14 C           5.4807   -1.4644    0.0734 C.ar    1  UNL1        0.1166
     15 N           4.1743   -1.2015   -0.0691 N.ar    1  UNL1       -0.2354
     16 C           1.5802    1.4500    0.2518 C.ar    1  UNL1       -0.0491
     17 C           0.2206    1.5958    0.0674 C.ar    1  UNL1       -0.0193
     18 H          -5.5913   -0.8353    1.7278 H       1  UNL1        0.0230
     19 H          -3.9187   -0.3716    2.1051 H       1  UNL1        0.0230
     20 H          -4.2019   -1.6572    0.8443 H       1  UNL1        0.0230
     21 H          -4.0693    1.2264    0.5179 H       1  UNL1        0.0264
     22 H          -5.7183    0.6636    0.0485 H       1  UNL1        0.0264
     23 H          -4.1662    0.7451   -1.8427 H       1  UNL1        0.0298
     24 H          -4.6504   -0.9400   -1.5869 H       1  UNL1        0.0298
     25 H          -2.5247   -1.2759   -0.2534 H       1  UNL1        0.0696
     26 H          -2.2156   -0.8427   -1.9440 H       1  UNL1        0.0696
     27 H          -0.4580   -1.5463   -0.9363 H       1  UNL1        0.0654
     28 H           1.8993   -1.7540   -0.6037 H       1  UNL1        0.0625
     29 H           4.1501    1.9876    0.8311 H       1  UNL1        0.0654
     30 H           6.5394    1.5201    1.0955 H       1  UNL1        0.0831
     31 H           5.8842   -2.4420   -0.1368 H       1  UNL1        0.1047
     32 H           2.1885    2.3039    0.5950 H       1  UNL1        0.0625
     33 H          -0.2426    2.5735    0.2677 H       1  UNL1        0.0654
@<TRIPOS>BOND
     1     1     2    1
     2     2     3    1
     3     3     4    1
     4     4     5    1
     5     5     6    1
     6     6     7   ar
     7     7     8   ar
     8     8     9   ar
     9     9    10    1
    10    10    11   ar
    11    11    12   ar
    12    12    13   ar
    13    13    14   ar
    14    14    15   ar
    15     9    16   ar
    16    16    17   ar
    17    17     6   ar
    18    15    10   ar
    19     1    18    1
    20     1    19    1
    21     1    20    1
    22     2    21    1
    23     2    22    1
    24     3    23    1
    25     3    24    1
    26     4    25    1
    27     4    26    1
    28     7    27    1
    29     8    28    1
    30    11    29    1
    31    12    30    1
    32    14    31    1
    33    16    32    1
    34    17    33    1
