
     RDKit          3D

 53 54  0  0  0  0  0  0  0  0999 V2000
    0.6493   -0.0876    0.2387 C   0  0  1  0  0  0  0  0  0  0  0  0
    0.8346   -1.3331    1.0289 C   0  0  0  0  0  0  0  0  0  0  0  0
    2.1240   -2.0559    0.9196 C   0  0  0  0  0  0  0  0  0  0  0  0
    2.4693   -2.4958   -0.4928 C   0  0  0  0  0  0  0  0  0  0  0  0
    3.3160   -1.4645    1.5617 C   0  0  0  0  0  0  0  0  0  0  0  0
   -0.6500    0.4998    0.4422 N   0  0  0  0  0  0  0  0  0  0  0  0
   -1.0285    1.5441   -0.3857 C   0  0  0  0  0  0  0  0  0  0  0  0
   -0.3020    2.7895   -0.4516 C   0  0  0  0  0  0  0  0  0  0  0  0
   -0.5023    3.9350    0.2894 C   0  0  0  0  0  0  0  0  0  0  0  0
    0.2417    5.0955    0.1606 C   0  0  0  0  0  0  0  0  0  0  0  0
    1.2407    5.1037   -0.7634 C   0  0  0  0  0  0  0  0  0  0  0  0
    1.5417    4.0291   -1.5635 C   0  0  0  0  0  0  0  0  0  0  0  0
    0.7509    2.9130   -1.3696 C   0  0  0  0  0  0  0  0  0  0  0  0
   -1.8548   -0.5017    1.0974 P   0  0  2  0  0  5  0  0  0  0  0  0
   -3.3678    0.5229    1.3153 C   0  0  0  0  0  0  0  0  0  0  0  0
   -1.5462   -1.0226    2.4826 O   0  0  0  0  0  0  0  0  0  0  0  0
   -2.3651   -1.8640    0.0975 C   0  0  0  0  0  0  0  0  0  0  0  0
   -3.2727   -2.7377    0.7077 C   0  0  0  0  0  0  0  0  0  0  0  0
   -3.7565   -3.8397    0.0518 C   0  0  0  0  0  0  0  0  0  0  0  0
   -3.3651   -4.1333   -1.2455 C   0  0  0  0  0  0  0  0  0  0  0  0
   -2.4685   -3.2748   -1.8554 C   0  0  0  0  0  0  0  0  0  0  0  0
   -1.9966   -2.1723   -1.1731 C   0  0  0  0  0  0  0  0  0  0  0  0
    1.7347    0.8616    0.6029 C   0  0  0  0  0  0  0  0  0  0  0  0
    0.8651    1.2715    1.4492 O   0  0  0  0  0  0  0  0  0  0  0  0
    3.0476    1.2343    0.2863 N   0  0  0  0  0  0  0  0  0  0  0  0
    3.5800    2.2355    0.9865 O   0  0  0  0  0  0  0  0  0  0  0  0
    0.7583   -0.3144   -0.8308 H   0  0  0  0  0  0  0  0  0  0  0  0
    0.7436   -1.0297    2.1191 H   0  0  0  0  0  0  0  0  0  0  0  0
    0.0141   -2.0704    0.9051 H   0  0  0  0  0  0  0  0  0  0  0  0
    1.9427   -3.0545    1.4590 H   0  0  0  0  0  0  0  0  0  0  0  0
    2.2857   -1.6891   -1.2247 H   0  0  0  0  0  0  0  0  0  0  0  0
    1.9544   -3.4399   -0.7606 H   0  0  0  0  0  0  0  0  0  0  0  0
    3.5577   -2.7076   -0.5036 H   0  0  0  0  0  0  0  0  0  0  0  0
    4.1468   -1.2238    0.8424 H   0  0  0  0  0  0  0  0  0  0  0  0
    3.8002   -2.2645    2.2078 H   0  0  0  0  0  0  0  0  0  0  0  0
    3.1216   -0.6495    2.2924 H   0  0  0  0  0  0  0  0  0  0  0  0
   -1.0801    1.1471   -1.4502 H   0  0  0  0  0  0  0  0  0  0  0  0
   -2.1200    1.7881   -0.1889 H   0  0  0  0  0  0  0  0  0  0  0  0
   -1.3039    3.8942    1.0146 H   0  0  0  0  0  0  0  0  0  0  0  0
    0.0096    5.9536    0.7919 H   0  0  0  0  0  0  0  0  0  0  0  0
    1.8593    6.0022   -0.9028 H   0  0  0  0  0  0  0  0  0  0  0  0
    2.3217    4.0089   -2.2977 H   0  0  0  0  0  0  0  0  0  0  0  0
    0.9780    2.0450   -2.0013 H   0  0  0  0  0  0  0  0  0  0  0  0
   -4.0270    0.1210    2.1045 H   0  0  0  0  0  0  0  0  0  0  0  0
   -3.1020    1.5587    1.6652 H   0  0  0  0  0  0  0  0  0  0  0  0
   -3.9580    0.5640    0.3850 H   0  0  0  0  0  0  0  0  0  0  0  0
   -3.6441   -2.5954    1.7281 H   0  0  0  0  0  0  0  0  0  0  0  0
   -4.4681   -4.5249    0.5303 H   0  0  0  0  0  0  0  0  0  0  0  0
   -3.7328   -4.9953   -1.7819 H   0  0  0  0  0  0  0  0  0  0  0  0
   -2.1021   -3.4288   -2.8831 H   0  0  0  0  0  0  0  0  0  0  0  0
   -1.2816   -1.4614   -1.6185 H   0  0  0  0  0  0  0  0  0  0  0  0
    3.2546    0.5473   -0.4963 H   0  0  0  0  0  0  0  0  0  0  0  0
    4.1522    2.7667    0.3698 H   0  0  0  0  0  0  0  0  0  0  0  0
  1  2  1  0
  2  3  1  0
  3  4  1  0
  3  5  1  0
  1  6  1  0
  6  7  1  0
  7  8  1  0
  8  9  2  0
  9 10  1  0
 10 11  2  0
 11 12  1  0
 12 13  2  0
 14  6  1  6
 14 15  1  0
 14 16  2  0
 14 17  1  0
 17 18  2  0
 18 19  1  0
 19 20  2  0
 20 21  1  0
 21 22  2  0
  1 23  1  0
 23 24  2  0
 23 25  1  0
 25 26  1  0
 13  8  1  0
 22 17  1  0
  1 27  1  6
  2 28  1  0
  2 29  1  0
  3 30  1  0
  4 31  1  0
  4 32  1  0
  4 33  1  0
  5 34  1  0
  5 35  1  0
  5 36  1  0
  7 37  1  0
  7 38  1  0
  9 39  1  0
 10 40  1  0
 11 41  1  0
 12 42  1  0
 13 43  1  0
 15 44  1  0
 15 45  1  0
 15 46  1  0
 18 47  1  0
 19 48  1  0
 20 49  1  0
 21 50  1  0
 22 51  1  0
 25 52  1  0
 26 53  1  0
M  END
$$$$
