@<TRIPOS>MOLECULE
*****
 53 54 0 0 0
SMALL
GASTEIGER

@<TRIPOS>ATOM
      1 C           0.6493   -0.0876    0.2387 C.3     1  UNL1        0.0956
      2 C           0.8346   -1.3331    1.0289 C.3     1  UNL1       -0.0261
      3 C           2.1240   -2.0559    0.9196 C.3     1  UNL1       -0.0448
      4 C           2.4693   -2.4958   -0.4928 C.3     1  UNL1       -0.0626
      5 C           3.3160   -1.4645    1.5617 C.3     1  UNL1       -0.0626
      6 N          -0.6500    0.4998    0.4422 N.3     1  UNL1       -0.2332
      7 C          -1.0285    1.5441   -0.3857 C.3     1  UNL1        0.0314
      8 C          -0.3020    2.7895   -0.4516 C.ar    1  UNL1       -0.0329
      9 C          -0.5023    3.9350    0.2894 C.ar    1  UNL1       -0.0573
     10 C           0.2417    5.0955    0.1606 C.ar    1  UNL1       -0.0615
     11 C           1.2407    5.1037   -0.7634 C.ar    1  UNL1       -0.0617
     12 C           1.5417    4.0291   -1.5635 C.ar    1  UNL1       -0.0615
     13 C           0.7509    2.9130   -1.3696 C.ar    1  UNL1       -0.0573
     14 P          -1.8548   -0.5017    1.0974 P.3     1  UNL1        0.1779
     15 C          -3.3678    0.5229    1.3153 C.3     1  UNL1        0.0062
     16 O          -1.5462   -1.0226    2.4826 O.2     1  UNL1       -0.2995
     17 C          -2.3651   -1.8640    0.0975 C.ar    1  UNL1        0.0255
     18 C          -3.2727   -2.7377    0.7077 C.ar    1  UNL1       -0.0501
     19 C          -3.7565   -3.8397    0.0518 C.ar    1  UNL1       -0.0610
     20 C          -3.3651   -4.1333   -1.2455 C.ar    1  UNL1       -0.0617
     21 C          -2.4685   -3.2748   -1.8554 C.ar    1  UNL1       -0.0610
     22 C          -1.9966   -2.1723   -1.1731 C.ar    1  UNL1       -0.0501
     23 C           1.7347    0.8616    0.6029 C.2     1  UNL1        0.2530
     24 O           0.8651    1.2715    1.4492 O.2     1  UNL1       -0.2720
     25 N           3.0476    1.2343    0.2863 N.am    1  UNL1       -0.1962
     26 O           3.5800    2.2355    0.9865 O.3     1  UNL1       -0.2951
     27 H           0.7583   -0.3144   -0.8308 H       1  UNL1        0.0563
     28 H           0.7436   -1.0297    2.1191 H       1  UNL1        0.0288
     29 H           0.0141   -2.0704    0.9051 H       1  UNL1        0.0288
     30 H           1.9427   -3.0545    1.4590 H       1  UNL1        0.0296
     31 H           2.2857   -1.6891   -1.2247 H       1  UNL1        0.0232
     32 H           1.9544   -3.4399   -0.7606 H       1  UNL1        0.0232
     33 H           3.5577   -2.7076   -0.5036 H       1  UNL1        0.0232
     34 H           4.1468   -1.2238    0.8424 H       1  UNL1        0.0232
     35 H           3.8002   -2.2645    2.2078 H       1  UNL1        0.0232
     36 H           3.1216   -0.6495    2.2924 H       1  UNL1        0.0232
     37 H          -1.0801    1.1471   -1.4502 H       1  UNL1        0.0480
     38 H          -2.1200    1.7881   -0.1889 H       1  UNL1        0.0480
     39 H          -1.3039    3.8942    1.0146 H       1  UNL1        0.0621
     40 H           0.0096    5.9536    0.7919 H       1  UNL1        0.0618
     41 H           1.8593    6.0022   -0.9028 H       1  UNL1        0.0618
     42 H           2.3217    4.0089   -2.2977 H       1  UNL1        0.0618
     43 H           0.9780    2.0450   -2.0013 H       1  UNL1        0.0621
     44 H          -4.0270    0.1210    2.1045 H       1  UNL1        0.0322
     45 H          -3.1020    1.5587    1.6652 H       1  UNL1        0.0322
     46 H          -3.9580    0.5640    0.3850 H       1  UNL1        0.0322
     47 H          -3.6441   -2.5954    1.7281 H       1  UNL1        0.0625
     48 H          -4.4681   -4.5249    0.5303 H       1  UNL1        0.0618
     49 H          -3.7328   -4.9953   -1.7819 H       1  UNL1        0.0618
     50 H          -2.1021   -3.4288   -2.8831 H       1  UNL1        0.0618
     51 H          -1.2816   -1.4614   -1.6185 H       1  UNL1        0.0625
     52 H           3.2546    0.5473   -0.4963 H       1  UNL1        0.1822
     53 H           4.1522    2.7667    0.3698 H       1  UNL1        0.2414
@<TRIPOS>BOND
     1     1     2    1
     2     2     3    1
     3     3     4    1
     4     3     5    1
     5     1     6    1
     6     6     7    1
     7     7     8    1
     8     8     9   ar
     9     9    10   ar
    10    10    11   ar
    11    11    12   ar
    12    12    13   ar
    13    14     6    1
    14    14    15    1
    15    14    16    2
    16    14    17    1
    17    17    18   ar
    18    18    19   ar
    19    19    20   ar
    20    20    21   ar
    21    21    22   ar
    22     1    23    1
    23    23    24    2
    24    23    25   am
    25    25    26    1
    26    13     8   ar
    27    22    17   ar
    28     1    27    1
    29     2    28    1
    30     2    29    1
    31     3    30    1
    32     4    31    1
    33     4    32    1
    34     4    33    1
    35     5    34    1
    36     5    35    1
    37     5    36    1
    38     7    37    1
    39     7    38    1
    40     9    39    1
    41    10    40    1
    42    11    41    1
    43    12    42    1
    44    13    43    1
    45    15    44    1
    46    15    45    1
    47    15    46    1
    48    18    47    1
    49    19    48    1
    50    20    49    1
    51    21    50    1
    52    22    51    1
    53    25    52    1
    54    26    53    1
