
     RDKit          3D

 41 43  0  0  0  0  0  0  0  0999 V2000
    3.1501   -3.0636   -0.9342 C   0  0  0  0  0  0  0  0  0  0  0  0
    1.9855   -2.2654   -0.8594 O   0  0  0  0  0  0  0  0  0  0  0  0
    2.0161   -0.9867   -0.3538 C   0  0  0  0  0  0  0  0  0  0  0  0
    3.1666   -0.3897    0.1133 C   0  0  0  0  0  0  0  0  0  0  0  0
    3.1690    0.8928    0.6146 C   0  0  0  0  0  0  0  0  0  0  0  0
    4.2677    1.5607    1.0989 O   0  0  0  0  0  0  0  0  0  0  0  0
    5.5746    1.0769    1.1758 C   0  0  0  0  0  0  0  0  0  0  0  0
    1.9760    1.6066    0.6507 C   0  0  0  0  0  0  0  0  0  0  0  0
    1.9055    3.2427    1.2753 Cl  0  0  0  0  0  0  0  0  0  0  0  0
    0.7794    1.0602    0.1940 C   0  0  0  0  0  0  0  0  0  0  0  0
    0.8714   -0.2281   -0.2904 C   0  0  0  0  0  0  0  0  0  0  0  0
   -0.4871   -0.5634   -0.6976 C   0  0  0  0  0  0  0  0  0  0  0  0
   -0.9404   -1.4854   -1.4145 O   0  0  0  0  0  0  0  0  0  0  0  0
   -1.4022    0.4154   -0.1081 C   0  0  2  0  0  0  0  0  0  0  0  0
   -0.5256    1.5226    0.1092 O   0  0  0  0  0  0  0  0  0  0  0  0
   -1.9105   -0.0080    1.2510 C   0  0  2  0  0  0  0  0  0  0  0  0
   -2.8032   -1.2143    1.1419 C   0  0  0  0  0  0  0  0  0  0  0  0
   -2.6240    1.1250    1.9567 C   0  0  0  0  0  0  0  0  0  0  0  0
   -3.3276    1.9860    0.9688 C   0  0  0  0  0  0  0  0  0  0  0  0
   -3.8604    3.0465    1.4015 O   0  0  0  0  0  0  0  0  0  0  0  0
   -3.4132    1.6422   -0.4476 C   0  0  0  0  0  0  0  0  0  0  0  0
   -2.4828    0.8756   -0.9953 C   0  0  0  0  0  0  0  0  0  0  0  0
   -2.4967    0.5066   -2.3337 O   0  0  0  0  0  0  0  0  0  0  0  0
   -3.5269   -0.3586   -2.8282 C   0  0  0  0  0  0  0  0  0  0  0  0
    3.5368   -3.3349    0.0705 H   0  0  0  0  0  0  0  0  0  0  0  0
    2.8733   -4.0096   -1.4803 H   0  0  0  0  0  0  0  0  0  0  0  0
    3.8828   -2.5212   -1.5661 H   0  0  0  0  0  0  0  0  0  0  0  0
    4.0839   -0.9239    0.0913 H   0  0  0  0  0  0  0  0  0  0  0  0
    5.7408    0.1606    0.5813 H   0  0  0  0  0  0  0  0  0  0  0  0
    5.8094    0.8890    2.2456 H   0  0  0  0  0  0  0  0  0  0  0  0
    6.2428    1.9115    0.8546 H   0  0  0  0  0  0  0  0  0  0  0  0
   -1.0683   -0.2949    1.9052 H   0  0  0  0  0  0  0  0  0  0  0  0
   -3.4104   -1.2571    2.0873 H   0  0  0  0  0  0  0  0  0  0  0  0
   -3.4880   -1.0664    0.2866 H   0  0  0  0  0  0  0  0  0  0  0  0
   -2.1901   -2.1523    1.0320 H   0  0  0  0  0  0  0  0  0  0  0  0
   -1.9219    1.6901    2.5999 H   0  0  0  0  0  0  0  0  0  0  0  0
   -3.3664    0.6136    2.6352 H   0  0  0  0  0  0  0  0  0  0  0  0
   -4.2260    2.0094   -1.0405 H   0  0  0  0  0  0  0  0  0  0  0  0
   -3.4238   -0.5711   -3.8959 H   0  0  0  0  0  0  0  0  0  0  0  0
   -3.6065   -1.2808   -2.2422 H   0  0  0  0  0  0  0  0  0  0  0  0
   -4.5296    0.1415   -2.7227 H   0  0  0  0  0  0  0  0  0  0  0  0
  1  2  1  0
  2  3  1  0
  3  4  2  0
  4  5  1  0
  5  6  1  0
  6  7  1  0
  5  8  2  0
  8  9  1  0
  8 10  1  0
 10 11  2  0
 11 12  1  0
 12 13  2  0
 12 14  1  0
 14 15  1  1
 14 16  1  0
 16 17  1  0
 16 18  1  0
 18 19  1  0
 19 20  2  0
 19 21  1  0
 21 22  2  0
 22 23  1  0
 23 24  1  0
 11  3  1  0
 22 14  1  0
 15 10  1  0
  1 25  1  0
  1 26  1  0
  1 27  1  0
  4 28  1  0
  7 29  1  0
  7 30  1  0
  7 31  1  0
 16 32  1  1
 17 33  1  0
 17 34  1  0
 17 35  1  0
 18 36  1  0
 18 37  1  0
 21 38  1  0
 24 39  1  0
 24 40  1  0
 24 41  1  0
M  END
$$$$
