@<TRIPOS>MOLECULE
*****
 62 64 0 0 0
SMALL
GASTEIGER

@<TRIPOS>ATOM
      1 C           7.5099    0.2378    1.5663 C.3     1  UNL1       -0.0612
      2 C           5.9858    0.4161    1.6162 C.3     1  UNL1       -0.0312
      3 C           5.3897   -0.8859    2.0341 C.3     1  UNL1       -0.0612
      4 C           5.5219    0.9966    0.3276 C.3     1  UNL1        0.0114
      5 N           4.1187    1.2202    0.1982 N.pl3   1  UNL1       -0.3436
      6 C           3.1824    0.2340   -0.2206 C.ar    1  UNL1        0.0277
      7 C           3.5935   -1.0105   -0.6273 C.ar    1  UNL1       -0.0408
      8 C           2.6652   -1.9702   -1.0160 C.ar    1  UNL1       -0.0594
      9 C           1.3335   -1.6909   -1.0007 C.ar    1  UNL1       -0.0525
     10 C           0.8906   -0.4222   -0.5889 C.ar    1  UNL1        0.0018
     11 C          -0.5571   -0.1668   -0.5560 C.ar    1  UNL1        0.0697
     12 C          -1.4250   -1.0305    0.1348 C.ar    1  UNL1       -0.0108
     13 C          -2.7159   -0.5889   -0.0397 C.ar    1  UNL1        0.0892
     14 C          -3.9566   -1.2259    0.5301 C.3     1  UNL1        0.0928
     15 O          -4.3809   -2.1426   -0.4011 O.3     1  UNL1       -0.3566
     16 C          -5.5159   -2.8384   -0.0722 C.3     1  UNL1        0.1602
     17 C          -5.4012   -3.6436    1.1940 C.3     1  UNL1       -0.0256
     18 C          -6.7553   -1.9875    0.0193 C.3     1  UNL1       -0.0256
     19 C          -5.7428   -3.8353   -1.1801 C.2     1  UNL1        0.3365
     20 O          -6.7335   -4.6020   -1.1134 O.2     1  UNL1       -0.2478
     21 O          -4.9035   -3.9409   -2.2695 O.3     1  UNL1       -0.4786
     22 N          -2.6216    0.4935   -0.8032 N.ar    1  UNL1       -0.1730
     23 N          -1.3235    0.7543   -1.1189 N.ar    1  UNL1       -0.2590
     24 C          -0.9305    1.8623   -1.9545 C.3     1  UNL1        0.0685
     25 C          -0.7004    3.1415   -1.3005 C.ar    1  UNL1       -0.0078
     26 C           0.5420    3.7191   -1.1445 C.ar    1  UNL1       -0.0554
     27 C           0.7405    4.9463   -0.5538 C.ar    1  UNL1       -0.0614
     28 C          -0.3535    5.6326   -0.0954 C.ar    1  UNL1       -0.0604
     29 C          -1.5935    5.0619   -0.2484 C.ar    1  UNL1       -0.0431
     30 C          -1.8136    3.8360   -0.8362 C.ar    1  UNL1        0.0459
     31 CL         -3.4500    3.2336   -0.9697 Cl      1  UNL1       -0.0832
     32 C           1.8199    0.5042   -0.2102 C.ar    1  UNL1       -0.0317
     33 H           7.8275    0.1292    0.4890 H       1  UNL1        0.0233
     34 H           7.8047   -0.7037    2.0620 H       1  UNL1        0.0233
     35 H           7.9478    1.1341    2.0008 H       1  UNL1        0.0233
     36 H           5.7321    1.1610    2.4178 H       1  UNL1        0.0310
     37 H           5.6843   -1.7497    1.4041 H       1  UNL1        0.0233
     38 H           4.2936   -0.8742    2.1471 H       1  UNL1        0.0233
     39 H           5.7696   -1.0615    3.0928 H       1  UNL1        0.0233
     40 H           6.1103    1.9485    0.1659 H       1  UNL1        0.0464
     41 H           5.9056    0.3238   -0.4816 H       1  UNL1        0.0464
     42 H           3.7796    2.1917    0.4356 H       1  UNL1        0.1461
     43 H           4.6614   -1.2860   -0.6768 H       1  UNL1        0.0636
     44 H           3.0101   -2.9590   -1.3374 H       1  UNL1        0.0618
     45 H           0.5654   -2.3955   -1.2915 H       1  UNL1        0.0624
     46 H          -1.1349   -1.8993    0.7099 H       1  UNL1        0.0658
     47 H          -3.7093   -1.6744    1.5138 H       1  UNL1        0.0626
     48 H          -4.6799   -0.3972    0.6729 H       1  UNL1        0.0626
     49 H          -6.1780   -4.4555    1.1194 H       1  UNL1        0.0263
     50 H          -4.4293   -4.1799    1.2673 H       1  UNL1        0.0263
     51 H          -5.6393   -3.0832    2.1063 H       1  UNL1        0.0263
     52 H          -6.6874   -1.3244    0.8881 H       1  UNL1        0.0263
     53 H          -7.6101   -2.6953    0.2009 H       1  UNL1        0.0263
     54 H          -6.9722   -1.4584   -0.9345 H       1  UNL1        0.0263
     55 H          -4.8154   -4.8281   -2.7264 H       1  UNL1        0.2951
     56 H          -1.7065    2.0002   -2.7499 H       1  UNL1        0.0559
     57 H           0.0454    1.5492   -2.4380 H       1  UNL1        0.0559
     58 H           1.4457    3.2066   -1.5002 H       1  UNL1        0.0621
     59 H           1.7315    5.3901   -0.4375 H       1  UNL1        0.0618
     60 H          -0.2372    6.5962    0.3726 H       1  UNL1        0.0618
     61 H          -2.4636    5.6104    0.1174 H       1  UNL1        0.0632
     62 H           1.5292    1.4763    0.1331 H       1  UNL1        0.0642
@<TRIPOS>BOND
     1     1     2    1
     2     2     3    1
     3     2     4    1
     4     4     5    1
     5     5     6    1
     6     6     7   ar
     7     7     8   ar
     8     8     9   ar
     9     9    10   ar
    10    10    11    1
    11    11    12   ar
    12    12    13   ar
    13    13    14    1
    14    14    15    1
    15    15    16    1
    16    16    17    1
    17    16    18    1
    18    16    19    1
    19    19    20    2
    20    19    21    1
    21    13    22   ar
    22    22    23   ar
    23    23    24    1
    24    24    25    1
    25    25    26   ar
    26    26    27   ar
    27    27    28   ar
    28    28    29   ar
    29    29    30   ar
    30    30    31    1
    31    10    32   ar
    32    32     6   ar
    33    23    11   ar
    34    30    25   ar
    35     1    33    1
    36     1    34    1
    37     1    35    1
    38     2    36    1
    39     3    37    1
    40     3    38    1
    41     3    39    1
    42     4    40    1
    43     4    41    1
    44     5    42    1
    45     7    43    1
    46     8    44    1
    47     9    45    1
    48    12    46    1
    49    14    47    1
    50    14    48    1
    51    17    49    1
    52    17    50    1
    53    17    51    1
    54    18    52    1
    55    18    53    1
    56    18    54    1
    57    21    55    1
    58    24    56    1
    59    24    57    1
    60    26    58    1
    61    27    59    1
    62    28    60    1
    63    29    61    1
    64    32    62    1
