@<TRIPOS>MOLECULE
*****
 55 59 0 0 0
SMALL
GASTEIGER

@<TRIPOS>ATOM
      1 C          -3.6845   -0.0242    0.2086 C.3     1  UNL1        0.1022
      2 C          -4.9334    0.4837    0.8486 C.3     1  UNL1        0.0331
      3 N          -6.1686    0.0190    0.3271 N.3     1  UNL1       -0.2991
      4 C          -6.4953    0.4807   -0.9887 C.3     1  UNL1       -0.0010
      5 C          -7.6073   -0.2164   -1.6788 C.3     1  UNL1       -0.0402
      6 C          -8.4126   -1.0056   -0.6686 C.3     1  UNL1       -0.0507
      7 C          -8.5605   -0.2238    0.6242 C.3     1  UNL1       -0.0402
      8 C          -7.2332    0.0434    1.2720 C.3     1  UNL1       -0.0010
      9 O          -2.6054    0.5967    0.8878 O.3     1  UNL1       -0.4907
     10 C          -1.2787    0.3632    0.5743 C.ar    1  UNL1        0.1206
     11 C          -0.7843   -0.4798   -0.4002 C.ar    1  UNL1       -0.0194
     12 C           0.5669   -0.6309   -0.6245 C.ar    1  UNL1       -0.0505
     13 C           1.4504    0.0898    0.1573 C.ar    1  UNL1       -0.0148
     14 C           1.0080    0.9530    1.1529 C.ar    1  UNL1       -0.0505
     15 C          -0.3527    1.0713    1.3404 C.ar    1  UNL1       -0.0194
     16 C           2.8980    0.0013    0.0087 C.ar    1  UNL1        0.0184
     17 C           3.4088   -0.2502   -1.2479 C.ar    1  UNL1        0.0406
     18 N           4.7258   -0.3484   -1.5018 N.ar    1  UNL1       -0.2206
     19 N           5.4116   -0.5812   -2.6066 N.ar    1  UNL1       -0.1727
     20 C           6.7282   -0.5765   -2.2896 C.ar    1  UNL1        0.0596
     21 C           6.8286   -0.3254   -0.9171 C.ar    1  UNL1        0.0461
     22 C           5.5296   -0.1814   -0.4246 C.ar    1  UNL1        0.1632
     23 N           5.0761    0.0648    0.8160 N.ar    1  UNL1       -0.2350
     24 C           3.7501    0.1629    1.0670 C.ar    1  UNL1        0.0391
     25 C           8.0711   -0.2251   -0.1419 C.ar    1  UNL1       -0.0100
     26 C           9.1725   -1.0785   -0.1551 C.ar    1  UNL1       -0.0357
     27 C          10.2349   -0.7764    0.6590 C.ar    1  UNL1        0.0281
     28 N          10.2107    0.3125    1.4459 N.ar    1  UNL1       -0.2632
     29 C           9.1758    1.1611    1.4933 C.ar    1  UNL1        0.0281
     30 C           8.0935    0.8957    0.6948 C.ar    1  UNL1       -0.0357
     31 H          -3.5842   -1.1135    0.3968 H       1  UNL1        0.0709
     32 H          -3.5684    0.2445   -0.8450 H       1  UNL1        0.0709
     33 H          -4.9358    1.5973    0.8160 H       1  UNL1        0.0460
     34 H          -4.8791    0.2276    1.9296 H       1  UNL1        0.0460
     35 H          -6.8102    1.5530   -0.8385 H       1  UNL1        0.0427
     36 H          -5.5556    0.5830   -1.5727 H       1  UNL1        0.0427
     37 H          -7.2933   -0.8401   -2.5379 H       1  UNL1        0.0278
     38 H          -8.3088    0.5278   -2.1024 H       1  UNL1        0.0278
     39 H          -7.9019   -1.9516   -0.3879 H       1  UNL1        0.0266
     40 H          -9.4376   -1.2347   -1.0237 H       1  UNL1        0.0266
     41 H          -9.0754    0.7371    0.4689 H       1  UNL1        0.0278
     42 H          -9.1588   -0.8625    1.3103 H       1  UNL1        0.0278
     43 H          -6.9846   -0.7391    2.0417 H       1  UNL1        0.0427
     44 H          -7.2944    1.0230    1.8014 H       1  UNL1        0.0427
     45 H          -1.5421   -1.0204   -0.9825 H       1  UNL1        0.0654
     46 H           0.9359   -1.2906   -1.3849 H       1  UNL1        0.0625
     47 H           1.6834    1.5295    1.7784 H       1  UNL1        0.0625
     48 H          -0.6826    1.7570    2.1296 H       1  UNL1        0.0654
     49 H           2.7280   -0.3758   -2.0778 H       1  UNL1        0.0837
     50 H           7.5329   -0.7390   -2.9869 H       1  UNL1        0.0855
     51 H           3.3728    0.3587    2.0541 H       1  UNL1        0.0837
     52 H           9.0379   -1.9058   -0.8384 H       1  UNL1        0.0639
     53 H          11.0375   -1.4907    0.5823 H       1  UNL1        0.0830
     54 H           9.1920    2.0297    2.1420 H       1  UNL1        0.0830
     55 H           7.2681    1.6203    0.7666 H       1  UNL1        0.0639
@<TRIPOS>BOND
     1     1     2    1
     2     2     3    1
     3     3     4    1
     4     4     5    1
     5     5     6    1
     6     6     7    1
     7     7     8    1
     8     1     9    1
     9     9    10    1
    10    10    11   ar
    11    11    12   ar
    12    12    13   ar
    13    13    14   ar
    14    14    15   ar
    15    13    16    1
    16    16    17   ar
    17    17    18   ar
    18    18    19   ar
    19    19    20   ar
    20    20    21   ar
    21    21    22   ar
    22    22    23   ar
    23    23    24   ar
    24    21    25    1
    25    25    26   ar
    26    26    27   ar
    27    27    28   ar
    28    28    29   ar
    29    29    30   ar
    30     8     3    1
    31    15    10   ar
    32    24    16   ar
    33    30    25   ar
    34    22    18   ar
    35     1    31    1
    36     1    32    1
    37     2    33    1
    38     2    34    1
    39     4    35    1
    40     4    36    1
    41     5    37    1
    42     5    38    1
    43     6    39    1
    44     6    40    1
    45     7    41    1
    46     7    42    1
    47     8    43    1
    48     8    44    1
    49    11    45    1
    50    12    46    1
    51    14    47    1
    52    15    48    1
    53    17    49    1
    54    20    50    1
    55    24    51    1
    56    26    52    1
    57    27    53    1
    58    29    54    1
    59    30    55    1
