@<TRIPOS>MOLECULE
*****
 52 56 0 0 0
SMALL
GASTEIGER

@<TRIPOS>ATOM
      1 C           7.2826    0.1206   -2.8504 C.3     1  UNL1       -0.0224
      2 C           6.6561   -0.6686   -1.7244 C.ar    1  UNL1        0.0385
      3 C           7.0609   -1.9628   -1.4690 C.ar    1  UNL1       -0.0406
      4 C           6.4964   -2.6779   -0.4524 C.ar    1  UNL1       -0.0584
      5 C           5.5102   -2.0842    0.3196 C.ar    1  UNL1       -0.0399
      6 C           5.1318   -0.8032    0.0420 C.ar    1  UNL1        0.0503
      7 C           4.0728   -0.1392    0.8562 C.3     1  UNL1        0.0668
      8 C           2.7271   -0.3680    0.2860 C.2     1  UNL1        0.2256
      9 O           2.6311   -1.0549   -0.7585 O.2     1  UNL1       -0.2748
     10 N           1.5931    0.1975    0.9405 N.am    1  UNL1       -0.2704
     11 C           1.5948    1.0026    2.1459 C.3     1  UNL1        0.0239
     12 C           0.5027    2.0316    1.8254 C.3     1  UNL1       -0.0069
     13 C          -0.4573    1.1789    1.0685 C.ar    1  UNL1        0.0113
     14 C           0.2194    0.0934    0.5522 C.ar    1  UNL1        0.0422
     15 C          -0.4272   -0.8801   -0.2062 C.ar    1  UNL1       -0.0393
     16 C          -1.7832   -0.7064   -0.4175 C.ar    1  UNL1       -0.0494
     17 C          -2.4704    0.3764    0.0946 C.ar    1  UNL1        0.0199
     18 C          -3.9010    0.5679   -0.1233 C.ar    1  UNL1        0.0150
     19 C          -4.5393    1.2385   -1.1454 C.ar    1  UNL1        0.0147
     20 N          -5.8698    1.1875   -0.9855 N.ar    1  UNL1       -0.3342
     21 C          -6.8988    1.7704   -1.8459 C.3     1  UNL1        0.0132
     22 C          -6.0754    0.4794    0.1462 C.ar    1  UNL1        0.1461
     23 N          -7.2058    0.1130    0.7927 N.ar    1  UNL1       -0.2176
     24 C          -7.1602   -0.6072    1.9285 C.ar    1  UNL1        0.1204
     25 N          -5.9799   -0.9775    2.4436 N.ar    1  UNL1       -0.2204
     26 C          -4.8085   -0.6573    1.8678 C.ar    1  UNL1        0.1292
     27 N          -3.5597   -1.0535    2.4200 N.pl3   1  UNL1       -0.3425
     28 C          -4.8740    0.0850    0.6982 C.ar    1  UNL1        0.0661
     29 C          -1.8096    1.3273    0.8422 C.ar    1  UNL1        0.1361
     30 F          -2.4703    2.4133    1.3624 F       1  UNL1       -0.2045
     31 N           5.7022   -0.1282   -0.9593 N.ar    1  UNL1       -0.2563
     32 H           8.0300    0.8096   -2.4334 H       1  UNL1        0.0292
     33 H           7.6812   -0.6227   -3.5524 H       1  UNL1        0.0292
     34 H           6.4602    0.6948   -3.3472 H       1  UNL1        0.0292
     35 H           7.8467   -2.3981   -2.1046 H       1  UNL1        0.0635
     36 H           6.8433   -3.6882   -0.2872 H       1  UNL1        0.0619
     37 H           5.0676   -2.6548    1.1221 H       1  UNL1        0.0636
     38 H           4.1581   -0.5541    1.8799 H       1  UNL1        0.0422
     39 H           4.2783    0.9413    0.9369 H       1  UNL1        0.0422
     40 H           2.5452    1.5048    2.3322 H       1  UNL1        0.0472
     41 H           1.2683    0.3733    3.0239 H       1  UNL1        0.0472
     42 H           0.0440    2.4211    2.7569 H       1  UNL1        0.0330
     43 H           0.9460    2.8288    1.2021 H       1  UNL1        0.0330
     44 H           0.1282   -1.7273   -0.6027 H       1  UNL1        0.0636
     45 H          -2.3218   -1.4587   -1.0127 H       1  UNL1        0.0625
     46 H          -4.0277    1.7389   -1.9671 H       1  UNL1        0.0816
     47 H          -6.6152    1.6725   -2.9081 H       1  UNL1        0.0456
     48 H          -7.8604    1.1887   -1.7432 H       1  UNL1        0.0456
     49 H          -7.1145    2.7980   -1.5380 H       1  UNL1        0.0456
     50 H          -8.0906   -0.8937    2.4368 H       1  UNL1        0.1048
     51 H          -2.9561   -0.3563    2.9080 H       1  UNL1        0.1437
     52 H          -3.2020   -2.0320    2.3630 H       1  UNL1        0.1437
@<TRIPOS>BOND
     1     1     2    1
     2     2     3   ar
     3     3     4   ar
     4     4     5   ar
     5     5     6   ar
     6     6     7    1
     7     7     8    1
     8     8     9    2
     9     8    10   am
    10    10    11    1
    11    11    12    1
    12    12    13    1
    13    13    14   ar
    14    14    15   ar
    15    15    16   ar
    16    16    17   ar
    17    17    18    1
    18    18    19   ar
    19    19    20   ar
    20    20    21    1
    21    20    22   ar
    22    22    23   ar
    23    23    24   ar
    24    24    25   ar
    25    25    26   ar
    26    26    27    1
    27    26    28   ar
    28    17    29   ar
    29    29    30    1
    30     6    31   ar
    31    31     2   ar
    32    14    10    1
    33    28    18   ar
    34    29    13   ar
    35    28    22   ar
    36     1    32    1
    37     1    33    1
    38     1    34    1
    39     3    35    1
    40     4    36    1
    41     5    37    1
    42     7    38    1
    43     7    39    1
    44    11    40    1
    45    11    41    1
    46    12    42    1
    47    12    43    1
    48    15    44    1
    49    16    45    1
    50    19    46    1
    51    21    47    1
    52    21    48    1
    53    21    49    1
    54    24    50    1
    55    27    51    1
    56    27    52    1
