@<TRIPOS>MOLECULE
*****
 76 80 0 0 0
SMALL
GASTEIGER

@<TRIPOS>ATOM
      1 C          -7.3397    5.3831   -0.1110 C.3     1  UNL1       -0.0397
      2 C          -6.7651    4.0052   -0.1164 C.ar    1  UNL1       -0.0503
      3 C          -6.2177    3.5026   -1.2789 C.ar    1  UNL1       -0.0568
      4 C          -5.6742    2.2215   -1.3174 C.ar    1  UNL1       -0.0359
      5 C          -5.6739    1.4326   -0.1924 C.ar    1  UNL1        0.0674
      6 N          -5.1372    0.1086   -0.1479 N.ar    1  UNL1       -0.2181
      7 N          -5.8819   -0.9944   -0.2372 N.ar    1  UNL1       -0.1691
      8 C          -5.1048   -2.0882   -0.1659 C.ar    1  UNL1        0.0706
      9 C          -5.5179   -3.5202   -0.2234 C.3     1  UNL1        0.0063
     10 C          -7.0068   -3.5797   -0.3844 C.3     1  UNL1       -0.0546
     11 C          -4.8397   -4.2404   -1.3451 C.3     1  UNL1       -0.0546
     12 C          -5.1689   -4.1240    1.1205 C.3     1  UNL1       -0.0546
     13 C          -3.8049   -1.5921   -0.0238 C.ar    1  UNL1        0.0021
     14 C          -3.8441   -0.2195   -0.0146 C.ar    1  UNL1        0.1299
     15 N          -2.7837    0.7046    0.1062 N.am    1  UNL1       -0.2538
     16 C          -1.4150    0.3721    0.2418 C.2     1  UNL1        0.3092
     17 O          -1.1013   -0.8442    0.2555 O.2     1  UNL1       -0.2521
     18 N          -0.3998    1.3927    0.3618 N.am    1  UNL1       -0.2686
     19 C           0.9679    0.9802    0.4953 C.ar    1  UNL1        0.0427
     20 C           1.5162    0.7530    1.7399 C.ar    1  UNL1       -0.0364
     21 C           2.8529    0.3511    1.8207 C.ar    1  UNL1       -0.0176
     22 C           3.6341    0.1764    0.6981 C.ar    1  UNL1        0.1283
     23 O           4.9558   -0.2246    0.8432 O.3     1  UNL1       -0.4901
     24 C           5.5549   -0.4672    2.0782 C.3     1  UNL1        0.1023
     25 C           6.9753   -0.8801    1.8773 C.3     1  UNL1        0.0333
     26 N           7.7655    0.1072    1.2118 N.3     1  UNL1       -0.2948
     27 C           7.3460    0.2530   -0.1462 C.3     1  UNL1        0.0225
     28 C           8.4708    0.6739   -1.0695 C.3     1  UNL1        0.0604
     29 O           9.4983   -0.2344   -1.1403 O.3     1  UNL1       -0.3772
     30 C           9.6432   -0.9542    0.0238 C.3     1  UNL1        0.0604
     31 C           9.1802   -0.1987    1.2338 C.3     1  UNL1        0.0225
     32 C           3.0755    0.4063   -0.5403 C.ar    1  UNL1        0.0256
     33 C           3.8088    0.2475   -1.6929 C.ar    1  UNL1       -0.0505
     34 C           3.2642    0.4734   -2.9322 C.ar    1  UNL1       -0.0611
     35 C           1.9321    0.8736   -3.0055 C.ar    1  UNL1       -0.0611
     36 C           1.2054    1.0309   -1.8606 C.ar    1  UNL1       -0.0521
     37 C           1.7465    0.8061   -0.6224 C.ar    1  UNL1        0.0069
     38 C          -6.2227    1.9449    0.9612 C.ar    1  UNL1       -0.0359
     39 C          -6.7576    3.2040    1.0013 C.ar    1  UNL1       -0.0568
     40 H          -8.0659    5.4971   -0.9544 H       1  UNL1        0.0278
     41 H          -6.5636    6.1543   -0.1618 H       1  UNL1        0.0278
     42 H          -7.9040    5.5445    0.8321 H       1  UNL1        0.0278
     43 H          -6.2286    4.1414   -2.1524 H       1  UNL1        0.0621
     44 H          -5.2455    1.8235   -2.2214 H       1  UNL1        0.0639
     45 H          -7.4258   -2.6636    0.1020 H       1  UNL1        0.0239
     46 H          -7.2345   -3.5330   -1.4825 H       1  UNL1        0.0239
     47 H          -7.4052   -4.4927    0.0841 H       1  UNL1        0.0239
     48 H          -3.7407   -4.2832   -1.2025 H       1  UNL1        0.0239
     49 H          -5.1917   -5.2927   -1.3291 H       1  UNL1        0.0239
     50 H          -5.1482   -3.8174   -2.3080 H       1  UNL1        0.0239
     51 H          -5.6532   -5.0970    1.2979 H       1  UNL1        0.0239
     52 H          -4.0632   -4.1620    1.1785 H       1  UNL1        0.0239
     53 H          -5.4959   -3.3947    1.8887 H       1  UNL1        0.0239
     54 H          -2.9433   -2.2335    0.0607 H       1  UNL1        0.0671
     55 H          -2.9866    1.7482    0.1008 H       1  UNL1        0.1578
     56 H          -0.6718    2.4006    0.3500 H       1  UNL1        0.1564
     57 H           0.9183    0.8853    2.6316 H       1  UNL1        0.0637
     58 H           3.2489    0.1824    2.8124 H       1  UNL1        0.0655
     59 H           5.0143   -1.3388    2.5381 H       1  UNL1        0.0709
     60 H           5.4341    0.3657    2.8005 H       1  UNL1        0.0709
     61 H           6.9742   -1.8271    1.2926 H       1  UNL1        0.0460
     62 H           7.4090   -1.0971    2.8753 H       1  UNL1        0.0460
     63 H           6.5969    1.0735   -0.1821 H       1  UNL1        0.0449
     64 H           6.9038   -0.6612   -0.5853 H       1  UNL1        0.0449
     65 H           8.9096    1.6454   -0.7135 H       1  UNL1        0.0572
     66 H           8.0265    0.8361   -2.0703 H       1  UNL1        0.0572
     67 H          10.7122   -1.1908    0.1706 H       1  UNL1        0.0572
     68 H           9.0162   -1.8760   -0.0734 H       1  UNL1        0.0572
     69 H           9.7472    0.7194    1.4070 H       1  UNL1        0.0449
     70 H           9.3440   -0.8667    2.1166 H       1  UNL1        0.0449
     71 H           4.8320   -0.0601   -1.6294 H       1  UNL1        0.0625
     72 H           3.8497    0.3453   -3.8284 H       1  UNL1        0.0618
     73 H           1.5399    1.0417   -4.0015 H       1  UNL1        0.0618
     74 H           0.1638    1.3441   -1.9250 H       1  UNL1        0.0624
     75 H          -6.2361    1.3372    1.8746 H       1  UNL1        0.0639
     76 H          -7.1734    3.5593    1.9220 H       1  UNL1        0.0621
@<TRIPOS>BOND
     1     1     2    1
     2     2     3   ar
     3     3     4   ar
     4     4     5   ar
     5     5     6    1
     6     6     7   ar
     7     7     8   ar
     8     8     9    1
     9     9    10    1
    10     9    11    1
    11     9    12    1
    12     8    13   ar
    13    13    14   ar
    14    14    15    1
    15    15    16   am
    16    16    17    2
    17    16    18   am
    18    18    19    1
    19    19    20   ar
    20    20    21   ar
    21    21    22   ar
    22    22    23    1
    23    23    24    1
    24    24    25    1
    25    25    26    1
    26    26    27    1
    27    27    28    1
    28    28    29    1
    29    29    30    1
    30    30    31    1
    31    22    32   ar
    32    32    33   ar
    33    33    34   ar
    34    34    35   ar
    35    35    36   ar
    36    36    37   ar
    37     5    38   ar
    38    38    39   ar
    39    39     2   ar
    40    14     6   ar
    41    37    19   ar
    42    31    26    1
    43    37    32   ar
    44     1    40    1
    45     1    41    1
    46     1    42    1
    47     3    43    1
    48     4    44    1
    49    10    45    1
    50    10    46    1
    51    10    47    1
    52    11    48    1
    53    11    49    1
    54    11    50    1
    55    12    51    1
    56    12    52    1
    57    12    53    1
    58    13    54    1
    59    15    55    1
    60    18    56    1
    61    20    57    1
    62    21    58    1
    63    24    59    1
    64    24    60    1
    65    25    61    1
    66    25    62    1
    67    27    63    1
    68    27    64    1
    69    28    65    1
    70    28    66    1
    71    30    67    1
    72    30    68    1
    73    31    69    1
    74    31    70    1
    75    33    71    1
    76    34    72    1
    77    35    73    1
    78    36    74    1
    79    38    75    1
    80    39    76    1
