
     RDKit          3D

 76 80  0  0  0  0  0  0  0  0999 V2000
   -7.3397    5.3831   -0.1110 C   0  0  0  0  0  0  0  0  0  0  0  0
   -6.7651    4.0052   -0.1164 C   0  0  0  0  0  0  0  0  0  0  0  0
   -6.2177    3.5026   -1.2789 C   0  0  0  0  0  0  0  0  0  0  0  0
   -5.6742    2.2215   -1.3174 C   0  0  0  0  0  0  0  0  0  0  0  0
   -5.6739    1.4326   -0.1924 C   0  0  0  0  0  0  0  0  0  0  0  0
   -5.1372    0.1086   -0.1479 N   0  0  0  0  0  0  0  0  0  0  0  0
   -5.8819   -0.9944   -0.2372 N   0  0  0  0  0  0  0  0  0  0  0  0
   -5.1048   -2.0882   -0.1659 C   0  0  0  0  0  0  0  0  0  0  0  0
   -5.5179   -3.5202   -0.2234 C   0  0  0  0  0  0  0  0  0  0  0  0
   -7.0068   -3.5797   -0.3844 C   0  0  0  0  0  0  0  0  0  0  0  0
   -4.8397   -4.2404   -1.3451 C   0  0  0  0  0  0  0  0  0  0  0  0
   -5.1689   -4.1240    1.1205 C   0  0  0  0  0  0  0  0  0  0  0  0
   -3.8049   -1.5921   -0.0238 C   0  0  0  0  0  0  0  0  0  0  0  0
   -3.8441   -0.2195   -0.0146 C   0  0  0  0  0  0  0  0  0  0  0  0
   -2.7837    0.7046    0.1062 N   0  0  0  0  0  0  0  0  0  0  0  0
   -1.4150    0.3721    0.2418 C   0  0  0  0  0  0  0  0  0  0  0  0
   -1.1013   -0.8442    0.2555 O   0  0  0  0  0  0  0  0  0  0  0  0
   -0.3998    1.3927    0.3618 N   0  0  0  0  0  0  0  0  0  0  0  0
    0.9679    0.9802    0.4953 C   0  0  0  0  0  0  0  0  0  0  0  0
    1.5162    0.7530    1.7399 C   0  0  0  0  0  0  0  0  0  0  0  0
    2.8529    0.3511    1.8207 C   0  0  0  0  0  0  0  0  0  0  0  0
    3.6341    0.1764    0.6981 C   0  0  0  0  0  0  0  0  0  0  0  0
    4.9558   -0.2246    0.8432 O   0  0  0  0  0  0  0  0  0  0  0  0
    5.5549   -0.4672    2.0782 C   0  0  0  0  0  0  0  0  0  0  0  0
    6.9753   -0.8801    1.8773 C   0  0  0  0  0  0  0  0  0  0  0  0
    7.7655    0.1072    1.2118 N   0  0  0  0  0  0  0  0  0  0  0  0
    7.3460    0.2530   -0.1462 C   0  0  0  0  0  0  0  0  0  0  0  0
    8.4708    0.6739   -1.0695 C   0  0  0  0  0  0  0  0  0  0  0  0
    9.4983   -0.2344   -1.1403 O   0  0  0  0  0  0  0  0  0  0  0  0
    9.6432   -0.9542    0.0238 C   0  0  0  0  0  0  0  0  0  0  0  0
    9.1802   -0.1987    1.2338 C   0  0  0  0  0  0  0  0  0  0  0  0
    3.0755    0.4063   -0.5403 C   0  0  0  0  0  0  0  0  0  0  0  0
    3.8088    0.2475   -1.6929 C   0  0  0  0  0  0  0  0  0  0  0  0
    3.2642    0.4734   -2.9322 C   0  0  0  0  0  0  0  0  0  0  0  0
    1.9321    0.8736   -3.0055 C   0  0  0  0  0  0  0  0  0  0  0  0
    1.2054    1.0309   -1.8606 C   0  0  0  0  0  0  0  0  0  0  0  0
    1.7465    0.8061   -0.6224 C   0  0  0  0  0  0  0  0  0  0  0  0
   -6.2227    1.9449    0.9612 C   0  0  0  0  0  0  0  0  0  0  0  0
   -6.7576    3.2040    1.0013 C   0  0  0  0  0  0  0  0  0  0  0  0
   -8.0659    5.4971   -0.9544 H   0  0  0  0  0  0  0  0  0  0  0  0
   -6.5636    6.1543   -0.1618 H   0  0  0  0  0  0  0  0  0  0  0  0
   -7.9040    5.5445    0.8321 H   0  0  0  0  0  0  0  0  0  0  0  0
   -6.2286    4.1414   -2.1524 H   0  0  0  0  0  0  0  0  0  0  0  0
   -5.2455    1.8235   -2.2214 H   0  0  0  0  0  0  0  0  0  0  0  0
   -7.4258   -2.6636    0.1020 H   0  0  0  0  0  0  0  0  0  0  0  0
   -7.2345   -3.5330   -1.4825 H   0  0  0  0  0  0  0  0  0  0  0  0
   -7.4052   -4.4927    0.0841 H   0  0  0  0  0  0  0  0  0  0  0  0
   -3.7407   -4.2832   -1.2025 H   0  0  0  0  0  0  0  0  0  0  0  0
   -5.1917   -5.2927   -1.3291 H   0  0  0  0  0  0  0  0  0  0  0  0
   -5.1482   -3.8174   -2.3080 H   0  0  0  0  0  0  0  0  0  0  0  0
   -5.6532   -5.0970    1.2979 H   0  0  0  0  0  0  0  0  0  0  0  0
   -4.0632   -4.1620    1.1785 H   0  0  0  0  0  0  0  0  0  0  0  0
   -5.4959   -3.3947    1.8887 H   0  0  0  0  0  0  0  0  0  0  0  0
   -2.9433   -2.2335    0.0607 H   0  0  0  0  0  0  0  0  0  0  0  0
   -2.9866    1.7482    0.1008 H   0  0  0  0  0  0  0  0  0  0  0  0
   -0.6718    2.4006    0.3500 H   0  0  0  0  0  0  0  0  0  0  0  0
    0.9183    0.8853    2.6316 H   0  0  0  0  0  0  0  0  0  0  0  0
    3.2489    0.1824    2.8124 H   0  0  0  0  0  0  0  0  0  0  0  0
    5.0143   -1.3388    2.5381 H   0  0  0  0  0  0  0  0  0  0  0  0
    5.4341    0.3657    2.8005 H   0  0  0  0  0  0  0  0  0  0  0  0
    6.9742   -1.8271    1.2926 H   0  0  0  0  0  0  0  0  0  0  0  0
    7.4090   -1.0971    2.8753 H   0  0  0  0  0  0  0  0  0  0  0  0
    6.5969    1.0735   -0.1821 H   0  0  0  0  0  0  0  0  0  0  0  0
    6.9038   -0.6612   -0.5853 H   0  0  0  0  0  0  0  0  0  0  0  0
    8.9096    1.6454   -0.7135 H   0  0  0  0  0  0  0  0  0  0  0  0
    8.0265    0.8361   -2.0703 H   0  0  0  0  0  0  0  0  0  0  0  0
   10.7122   -1.1908    0.1706 H   0  0  0  0  0  0  0  0  0  0  0  0
    9.0162   -1.8760   -0.0734 H   0  0  0  0  0  0  0  0  0  0  0  0
    9.7472    0.7194    1.4070 H   0  0  0  0  0  0  0  0  0  0  0  0
    9.3440   -0.8667    2.1166 H   0  0  0  0  0  0  0  0  0  0  0  0
    4.8320   -0.0601   -1.6294 H   0  0  0  0  0  0  0  0  0  0  0  0
    3.8497    0.3453   -3.8284 H   0  0  0  0  0  0  0  0  0  0  0  0
    1.5399    1.0417   -4.0015 H   0  0  0  0  0  0  0  0  0  0  0  0
    0.1638    1.3441   -1.9250 H   0  0  0  0  0  0  0  0  0  0  0  0
   -6.2361    1.3372    1.8746 H   0  0  0  0  0  0  0  0  0  0  0  0
   -7.1734    3.5593    1.9220 H   0  0  0  0  0  0  0  0  0  0  0  0
  1  2  1  0
  2  3  2  0
  3  4  1  0
  4  5  2  0
  5  6  1  0
  6  7  1  0
  7  8  2  0
  8  9  1  0
  9 10  1  0
  9 11  1  0
  9 12  1  0
  8 13  1  0
 13 14  2  0
 14 15  1  0
 15 16  1  0
 16 17  2  0
 16 18  1  0
 18 19  1  0
 19 20  2  0
 20 21  1  0
 21 22  2  0
 22 23  1  0
 23 24  1  0
 24 25  1  0
 25 26  1  0
 26 27  1  0
 27 28  1  0
 28 29  1  0
 29 30  1  0
 30 31  1  0
 22 32  1  0
 32 33  2  0
 33 34  1  0
 34 35  2  0
 35 36  1  0
 36 37  2  0
  5 38  1  0
 38 39  2  0
 39  2  1  0
 14  6  1  0
 37 19  1  0
 31 26  1  0
 37 32  1  0
  1 40  1  0
  1 41  1  0
  1 42  1  0
  3 43  1  0
  4 44  1  0
 10 45  1  0
 10 46  1  0
 10 47  1  0
 11 48  1  0
 11 49  1  0
 11 50  1  0
 12 51  1  0
 12 52  1  0
 12 53  1  0
 13 54  1  0
 15 55  1  0
 18 56  1  0
 20 57  1  0
 21 58  1  0
 24 59  1  0
 24 60  1  0
 25 61  1  0
 25 62  1  0
 27 63  1  0
 27 64  1  0
 28 65  1  0
 28 66  1  0
 30 67  1  0
 30 68  1  0
 31 69  1  0
 31 70  1  0
 33 71  1  0
 34 72  1  0
 35 73  1  0
 36 74  1  0
 38 75  1  0
 39 76  1  0
M  END
$$$$
