@<TRIPOS>MOLECULE
*****
 42 44 0 0 0
SMALL
GASTEIGER

@<TRIPOS>ATOM
      1 C           8.1672    0.8644   -0.1081 C.3     1  UNL1        0.0125
      2 C           6.7335    0.4731    0.1084 C.2     1  UNL1        0.2141
      3 O           6.3913   -0.2499    1.0774 O.2     1  UNL1       -0.2758
      4 N           5.7232    0.9195   -0.7909 N.am    1  UNL1       -0.2857
      5 C           4.3540    0.5406   -0.5766 C.ar    1  UNL1        0.0334
      6 C           3.5422    1.3342    0.1924 C.ar    1  UNL1       -0.0398
      7 C           2.2042    1.0138    0.4332 C.ar    1  UNL1       -0.0479
      8 C           1.7069   -0.1383   -0.1285 C.ar    1  UNL1        0.0371
      9 C           0.3221   -0.5239    0.0867 C.2     1  UNL1        0.2483
     10 O          -0.1240   -1.5986   -0.4428 O.2     1  UNL1       -0.2699
     11 N          -0.6070    0.2094    0.8560 N.am    1  UNL1       -0.2799
     12 C          -1.9697   -0.2444    1.0210 C.ar    1  UNL1        0.0551
     13 C          -2.9565    0.1509    0.1230 C.ar    1  UNL1       -0.0305
     14 C          -4.2586   -0.2721    0.2657 C.ar    1  UNL1       -0.0094
     15 C          -5.2697    0.1707   -0.7074 C.ar    1  UNL1        0.0194
     16 C          -6.5780   -0.0946   -0.7885 C.ar    1  UNL1       -0.0469
     17 C          -7.3303    0.4139   -1.7642 C.ar    1  UNL1       -0.0541
     18 C          -6.6892    1.2336   -2.6936 C.ar    1  UNL1       -0.0237
     19 S          -4.9867    1.2205   -2.0844 S.2     1  UNL1       -0.0967
     20 C          -4.5569   -1.0962    1.3204 C.ar    1  UNL1       -0.0517
     21 C          -3.5735   -1.4948    2.2218 C.ar    1  UNL1       -0.0386
     22 C          -2.2656   -1.0687    2.0768 C.ar    1  UNL1        0.0461
     23 N          -1.2706   -1.4910    3.0156 N.pl3   1  UNL1       -0.3565
     24 C           2.5286   -0.9483   -0.9110 C.ar    1  UNL1       -0.0479
     25 C           3.8315   -0.6096   -1.1287 C.ar    1  UNL1       -0.0398
     26 H           8.3614    1.1279   -1.1489 H       1  UNL1        0.0323
     27 H           8.4029    1.6572    0.6216 H       1  UNL1        0.0323
     28 H           8.7749   -0.0366    0.1994 H       1  UNL1        0.0323
     29 H           6.0024    1.5207   -1.5979 H       1  UNL1        0.1548
     30 H           3.9665    2.2296    0.6164 H       1  UNL1        0.0636
     31 H           1.6021    1.6671    1.0443 H       1  UNL1        0.0626
     32 H          -0.2945    1.0912    1.3082 H       1  UNL1        0.1552
     33 H          -2.6991    0.8022   -0.7030 H       1  UNL1        0.0643
     34 H          -7.0422   -0.7654   -0.0069 H       1  UNL1        0.0629
     35 H          -8.4440    0.2051   -1.8571 H       1  UNL1        0.0623
     36 H          -7.0762    1.7806   -3.5965 H       1  UNL1        0.0693
     37 H          -5.5683   -1.4297    1.4382 H       1  UNL1        0.0624
     38 H          -3.8323   -2.1433    3.0435 H       1  UNL1        0.0637
     39 H          -1.4015   -2.4160    3.4784 H       1  UNL1        0.1424
     40 H          -0.4364   -0.9310    3.2562 H       1  UNL1        0.1424
     41 H           2.1290   -1.8479   -1.3459 H       1  UNL1        0.0626
     42 H           4.4868   -1.2257   -1.7340 H       1  UNL1        0.0636
@<TRIPOS>BOND
     1     1     2    1
     2     2     3    2
     3     2     4   am
     4     4     5    1
     5     5     6   ar
     6     6     7   ar
     7     7     8   ar
     8     8     9    1
     9     9    10    2
    10     9    11   am
    11    11    12    1
    12    12    13   ar
    13    13    14   ar
    14    14    15    1
    15    15    16   ar
    16    16    17   ar
    17    17    18   ar
    18    18    19   ar
    19    14    20   ar
    20    20    21   ar
    21    21    22   ar
    22    22    23    1
    23     8    24   ar
    24    24    25   ar
    25    25     5   ar
    26    22    12   ar
    27    19    15   ar
    28     1    26    1
    29     1    27    1
    30     1    28    1
    31     4    29    1
    32     6    30    1
    33     7    31    1
    34    11    32    1
    35    13    33    1
    36    16    34    1
    37    17    35    1
    38    18    36    1
    39    20    37    1
    40    21    38    1
    41    23    39    1
    42    23    40    1
    43    24    41    1
    44    25    42    1
