
     RDKit          3D

 42 44  0  0  0  0  0  0  0  0999 V2000
    8.1672    0.8644   -0.1081 C   0  0  0  0  0  0  0  0  0  0  0  0
    6.7335    0.4731    0.1084 C   0  0  0  0  0  0  0  0  0  0  0  0
    6.3913   -0.2499    1.0774 O   0  0  0  0  0  0  0  0  0  0  0  0
    5.7232    0.9195   -0.7909 N   0  0  0  0  0  0  0  0  0  0  0  0
    4.3540    0.5406   -0.5766 C   0  0  0  0  0  0  0  0  0  0  0  0
    3.5422    1.3342    0.1924 C   0  0  0  0  0  0  0  0  0  0  0  0
    2.2042    1.0138    0.4332 C   0  0  0  0  0  0  0  0  0  0  0  0
    1.7069   -0.1383   -0.1285 C   0  0  0  0  0  0  0  0  0  0  0  0
    0.3221   -0.5239    0.0867 C   0  0  0  0  0  0  0  0  0  0  0  0
   -0.1240   -1.5986   -0.4428 O   0  0  0  0  0  0  0  0  0  0  0  0
   -0.6070    0.2094    0.8560 N   0  0  0  0  0  0  0  0  0  0  0  0
   -1.9697   -0.2444    1.0210 C   0  0  0  0  0  0  0  0  0  0  0  0
   -2.9565    0.1509    0.1230 C   0  0  0  0  0  0  0  0  0  0  0  0
   -4.2586   -0.2721    0.2657 C   0  0  0  0  0  0  0  0  0  0  0  0
   -5.2697    0.1707   -0.7074 C   0  0  0  0  0  0  0  0  0  0  0  0
   -6.5780   -0.0946   -0.7885 C   0  0  0  0  0  0  0  0  0  0  0  0
   -7.3303    0.4139   -1.7642 C   0  0  0  0  0  0  0  0  0  0  0  0
   -6.6892    1.2336   -2.6936 C   0  0  0  0  0  0  0  0  0  0  0  0
   -4.9867    1.2205   -2.0844 S   0  0  0  0  0  0  0  0  0  0  0  0
   -4.5569   -1.0962    1.3204 C   0  0  0  0  0  0  0  0  0  0  0  0
   -3.5735   -1.4948    2.2218 C   0  0  0  0  0  0  0  0  0  0  0  0
   -2.2656   -1.0687    2.0768 C   0  0  0  0  0  0  0  0  0  0  0  0
   -1.2706   -1.4910    3.0156 N   0  0  0  0  0  0  0  0  0  0  0  0
    2.5286   -0.9483   -0.9110 C   0  0  0  0  0  0  0  0  0  0  0  0
    3.8315   -0.6096   -1.1287 C   0  0  0  0  0  0  0  0  0  0  0  0
    8.3614    1.1279   -1.1489 H   0  0  0  0  0  0  0  0  0  0  0  0
    8.4029    1.6572    0.6216 H   0  0  0  0  0  0  0  0  0  0  0  0
    8.7749   -0.0366    0.1994 H   0  0  0  0  0  0  0  0  0  0  0  0
    6.0024    1.5207   -1.5979 H   0  0  0  0  0  0  0  0  0  0  0  0
    3.9665    2.2296    0.6164 H   0  0  0  0  0  0  0  0  0  0  0  0
    1.6021    1.6671    1.0443 H   0  0  0  0  0  0  0  0  0  0  0  0
   -0.2945    1.0912    1.3082 H   0  0  0  0  0  0  0  0  0  0  0  0
   -2.6991    0.8022   -0.7030 H   0  0  0  0  0  0  0  0  0  0  0  0
   -7.0422   -0.7654   -0.0069 H   0  0  0  0  0  0  0  0  0  0  0  0
   -8.4440    0.2051   -1.8571 H   0  0  0  0  0  0  0  0  0  0  0  0
   -7.0762    1.7806   -3.5965 H   0  0  0  0  0  0  0  0  0  0  0  0
   -5.5683   -1.4297    1.4382 H   0  0  0  0  0  0  0  0  0  0  0  0
   -3.8323   -2.1433    3.0435 H   0  0  0  0  0  0  0  0  0  0  0  0
   -1.4015   -2.4160    3.4784 H   0  0  0  0  0  0  0  0  0  0  0  0
   -0.4364   -0.9310    3.2562 H   0  0  0  0  0  0  0  0  0  0  0  0
    2.1290   -1.8479   -1.3459 H   0  0  0  0  0  0  0  0  0  0  0  0
    4.4868   -1.2257   -1.7340 H   0  0  0  0  0  0  0  0  0  0  0  0
  1  2  1  0
  2  3  2  0
  2  4  1  0
  4  5  1  0
  5  6  2  0
  6  7  1  0
  7  8  2  0
  8  9  1  0
  9 10  2  0
  9 11  1  0
 11 12  1  0
 12 13  2  0
 13 14  1  0
 14 15  1  0
 15 16  2  0
 16 17  1  0
 17 18  2  0
 18 19  1  0
 14 20  2  0
 20 21  1  0
 21 22  2  0
 22 23  1  0
  8 24  1  0
 24 25  2  0
 25  5  1  0
 22 12  1  0
 19 15  1  0
  1 26  1  0
  1 27  1  0
  1 28  1  0
  4 29  1  0
  6 30  1  0
  7 31  1  0
 11 32  1  0
 13 33  1  0
 16 34  1  0
 17 35  1  0
 18 36  1  0
 20 37  1  0
 21 38  1  0
 23 39  1  0
 23 40  1  0
 24 41  1  0
 25 42  1  0
M  END
$$$$
