
     RDKit          3D

103103  0  0  0  0  0  0  0  0999 V2000
   -4.6908    1.6889   -2.8821 C   0  0  0  0  0  0  0  0  0  0  0  0
   -3.2242    1.6347   -2.5725 C   0  0  0  0  0  0  0  0  0  0  0  0
   -2.6427    0.2775   -2.4189 C   0  0  2  0  0  0  0  0  0  0  0  0
   -2.8327   -0.5562   -3.6526 C   0  0  0  0  0  0  0  0  0  0  0  0
   -3.0429   -0.4146   -1.1687 C   0  0  2  0  0  0  0  0  0  0  0  0
   -4.4655   -0.5820   -1.0902 N   0  0  0  0  0  0  0  0  0  0  0  0
   -5.1020   -1.8686   -1.2073 C   0  0  0  0  0  0  0  0  0  0  0  0
   -4.3766   -2.8547   -1.3798 O   0  0  0  0  0  0  0  0  0  0  0  0
   -6.4500   -2.0372   -1.1371 O   0  0  0  0  0  0  0  0  0  0  0  0
   -7.1857   -3.2256   -1.2358 C   0  0  0  0  0  0  0  0  0  0  0  0
   -6.9041   -4.2470   -0.2364 C   0  0  0  0  0  0  0  0  0  0  0  0
   -5.9846   -5.2415   -0.4663 C   0  0  0  0  0  0  0  0  0  0  0  0
   -5.7681   -6.1723    0.5297 C   0  0  0  0  0  0  0  0  0  0  0  0
   -6.4738   -6.0800    1.7167 C   0  0  0  0  0  0  0  0  0  0  0  0
   -7.3849   -5.0963    1.9469 C   0  0  0  0  0  0  0  0  0  0  0  0
   -7.6044   -4.1698    0.9637 C   0  0  0  0  0  0  0  0  0  0  0  0
   -2.5790    0.3187    0.0551 C   0  0  0  0  0  0  0  0  0  0  0  0
   -3.4706    0.5829    0.9054 O   0  0  0  0  0  0  0  0  0  0  0  0
   -1.2279    0.6797    0.2252 N   0  0  0  0  0  0  0  0  0  0  0  0
   -0.6649    1.3897    1.3317 C   0  0  1  0  0  0  0  0  0  0  0  0
   -1.5914    2.1100    2.2451 C   0  0  0  0  0  0  0  0  0  0  0  0
   -2.2919    3.2346    1.5474 C   0  0  0  0  0  0  0  0  0  0  0  0
   -1.3177    4.3203    1.1531 C   0  0  0  0  0  0  0  0  0  0  0  0
   -0.1735    4.2849    1.6369 O   0  0  0  0  0  0  0  0  0  0  0  0
   -1.7177    5.3381    0.2567 N   0  0  0  0  0  0  0  0  0  0  0  0
   -0.8128    6.4065   -0.1557 C   0  0  0  0  0  0  0  0  0  0  0  0
    0.4146    5.8369   -0.8514 C   0  0  0  0  0  0  0  0  0  0  0  0
   -1.5658    7.3263   -1.0637 C   0  0  0  0  0  0  0  0  0  0  0  0
   -0.3234    7.0980    1.0971 C   0  0  0  0  0  0  0  0  0  0  0  0
    0.4346    0.6524    1.9630 C   0  0  0  0  0  0  0  0  0  0  0  0
    1.0311    1.0675    2.9975 O   0  0  0  0  0  0  0  0  0  0  0  0
    0.9204   -0.6015    1.4493 N   0  0  0  0  0  0  0  0  0  0  0  0
    2.0046   -1.3409    2.0568 C   0  0  1  0  0  0  0  0  0  0  0  0
    1.5472   -2.7560    2.2789 C   0  0  0  0  0  0  0  0  0  0  0  0
    3.2473   -1.2512    1.2235 C   0  0  0  0  0  0  0  0  0  0  0  0
    3.1566   -0.5572    0.1894 O   0  0  0  0  0  0  0  0  0  0  0  0
    4.4395   -1.8876    1.5549 N   0  0  0  0  0  0  0  0  0  0  0  0
    5.6947   -1.9210    0.8738 C   0  0  2  0  0  0  0  0  0  0  0  0
    6.8498   -1.5181    1.6676 C   0  0  0  0  0  0  0  0  0  0  0  0
    8.0964   -1.6768    1.2661 C   0  0  0  0  0  0  0  0  0  0  0  0
    9.4028   -1.1403    2.3353 S   0  0  0  0  0  6  0  0  0  0  0  0
    9.1838    0.5858    2.6216 C   0  0  0  0  0  0  0  0  0  0  0  0
   10.6925   -1.4596    1.6364 O   0  0  0  0  0  0  0  0  0  0  0  0
    9.2945   -1.9085    3.6399 O   0  0  0  0  0  0  0  0  0  0  0  0
    5.7005   -1.4441   -0.5599 C   0  0  0  0  0  0  0  0  0  0  0  0
    4.8777   -2.2975   -1.4883 C   0  0  0  0  0  0  0  0  0  0  0  0
    4.9197   -1.7212   -2.8926 C   0  0  0  0  0  0  0  0  0  0  0  0
    5.5695   -3.6869   -1.6319 C   0  0  0  0  0  0  0  0  0  0  0  0
   -5.1006    0.7018   -3.2092 H   0  0  0  0  0  0  0  0  0  0  0  0
   -5.3064    2.2055   -2.1248 H   0  0  0  0  0  0  0  0  0  0  0  0
   -4.8115    2.3349   -3.8128 H   0  0  0  0  0  0  0  0  0  0  0  0
   -3.0823    2.2422   -1.6232 H   0  0  0  0  0  0  0  0  0  0  0  0
   -2.6888    2.2431   -3.3564 H   0  0  0  0  0  0  0  0  0  0  0  0
   -1.4867    0.3636   -2.3471 H   0  0  0  0  0  0  0  0  0  0  0  0
   -3.8523   -0.9629   -3.7623 H   0  0  0  0  0  0  0  0  0  0  0  0
   -2.0524   -1.3480   -3.7009 H   0  0  0  0  0  0  0  0  0  0  0  0
   -2.6454    0.0925   -4.5342 H   0  0  0  0  0  0  0  0  0  0  0  0
   -2.5547   -1.4488   -1.1317 H   0  0  0  0  0  0  0  0  0  0  0  0
   -5.1197    0.2103   -0.9252 H   0  0  0  0  0  0  0  0  0  0  0  0
   -6.9971   -3.6161   -2.2827 H   0  0  0  0  0  0  0  0  0  0  0  0
   -8.2700   -2.9392   -1.2589 H   0  0  0  0  0  0  0  0  0  0  0  0
   -5.4215   -5.3523   -1.3745 H   0  0  0  0  0  0  0  0  0  0  0  0
   -5.0582   -6.9592    0.3815 H   0  0  0  0  0  0  0  0  0  0  0  0
   -6.2775   -6.8212    2.4632 H   0  0  0  0  0  0  0  0  0  0  0  0
   -7.9046   -5.0727    2.8862 H   0  0  0  0  0  0  0  0  0  0  0  0
   -8.3174   -3.3953    1.1367 H   0  0  0  0  0  0  0  0  0  0  0  0
   -0.5671    0.4015   -0.5327 H   0  0  0  0  0  0  0  0  0  0  0  0
   -0.1239    2.2983    0.8051 H   0  0  0  0  0  0  0  0  0  0  0  0
   -0.9507    2.5507    3.0567 H   0  0  0  0  0  0  0  0  0  0  0  0
   -2.3722    1.4732    2.7162 H   0  0  0  0  0  0  0  0  0  0  0  0
   -2.8256    2.9846    0.6220 H   0  0  0  0  0  0  0  0  0  0  0  0
   -3.0855    3.6910    2.2138 H   0  0  0  0  0  0  0  0  0  0  0  0
   -2.7052    5.2842   -0.0986 H   0  0  0  0  0  0  0  0  0  0  0  0
    1.1580    5.5444   -0.0708 H   0  0  0  0  0  0  0  0  0  0  0  0
    0.1742    5.0154   -1.5269 H   0  0  0  0  0  0  0  0  0  0  0  0
    0.9019    6.6477   -1.4280 H   0  0  0  0  0  0  0  0  0  0  0  0
   -2.6402    7.3606   -0.8787 H   0  0  0  0  0  0  0  0  0  0  0  0
   -1.1544    8.3753   -1.0203 H   0  0  0  0  0  0  0  0  0  0  0  0
   -1.4167    7.0191   -2.1385 H   0  0  0  0  0  0  0  0  0  0  0  0
    0.0495    8.1295    0.8411 H   0  0  0  0  0  0  0  0  0  0  0  0
    0.5365    6.5046    1.4789 H   0  0  0  0  0  0  0  0  0  0  0  0
   -1.0776    7.1139    1.8963 H   0  0  0  0  0  0  0  0  0  0  0  0
    0.4454   -0.9709    0.5937 H   0  0  0  0  0  0  0  0  0  0  0  0
    2.2174   -0.8124    3.0318 H   0  0  0  0  0  0  0  0  0  0  0  0
    0.4580   -2.8146    2.2074 H   0  0  0  0  0  0  0  0  0  0  0  0
    1.9460   -3.3559    1.4086 H   0  0  0  0  0  0  0  0  0  0  0  0
    1.9425   -3.1843    3.2290 H   0  0  0  0  0  0  0  0  0  0  0  0
    4.4098   -2.4465    2.4722 H   0  0  0  0  0  0  0  0  0  0  0  0
    5.8244   -3.0805    0.6828 H   0  0  0  0  0  0  0  0  0  0  0  0
    6.6265   -1.0603    2.6508 H   0  0  0  0  0  0  0  0  0  0  0  0
    8.2858   -2.1263    0.3010 H   0  0  0  0  0  0  0  0  0  0  0  0
    9.9800    1.1755    2.1376 H   0  0  0  0  0  0  0  0  0  0  0  0
    9.2390    0.7583    3.7350 H   0  0  0  0  0  0  0  0  0  0  0  0
    8.1643    0.9259    2.2845 H   0  0  0  0  0  0  0  0  0  0  0  0
    6.7749   -1.4546   -0.8878 H   0  0  0  0  0  0  0  0  0  0  0  0
    5.3020   -0.4173   -0.5859 H   0  0  0  0  0  0  0  0  0  0  0  0
    3.8774   -2.5203   -1.1719 H   0  0  0  0  0  0  0  0  0  0  0  0
    4.6837   -0.6380   -2.8368 H   0  0  0  0  0  0  0  0  0  0  0  0
    4.2174   -2.2362   -3.5539 H   0  0  0  0  0  0  0  0  0  0  0  0
    5.9559   -1.8124   -3.2751 H   0  0  0  0  0  0  0  0  0  0  0  0
    5.2230   -4.3233   -0.8031 H   0  0  0  0  0  0  0  0  0  0  0  0
    5.2183   -4.0800   -2.6079 H   0  0  0  0  0  0  0  0  0  0  0  0
    6.6458   -3.5171   -1.6450 H   0  0  0  0  0  0  0  0  0  0  0  0
  1  2  1  0
  2  3  1  0
  3  4  1  0
  3  5  1  0
  5  6  1  0
  6  7  1  0
  7  8  2  0
  7  9  1  0
  9 10  1  0
 10 11  1  0
 11 12  2  0
 12 13  1  0
 13 14  2  0
 14 15  1  0
 15 16  2  0
  5 17  1  0
 17 18  2  0
 17 19  1  0
 19 20  1  0
 20 21  1  0
 21 22  1  0
 22 23  1  0
 23 24  2  0
 23 25  1  0
 25 26  1  0
 26 27  1  0
 26 28  1  0
 26 29  1  0
 20 30  1  0
 30 31  2  0
 30 32  1  0
 32 33  1  0
 33 34  1  0
 33 35  1  0
 35 36  2  0
 35 37  1  0
 37 38  1  0
 38 39  1  0
 39 40  2  3
 40 41  1  0
 41 42  1  0
 41 43  2  0
 41 44  2  0
 38 45  1  0
 45 46  1  0
 46 47  1  0
 46 48  1  0
 16 11  1  0
  1 49  1  0
  1 50  1  0
  1 51  1  0
  2 52  1  0
  2 53  1  0
  3 54  1  1
  4 55  1  0
  4 56  1  0
  4 57  1  0
  5 58  1  6
  6 59  1  0
 10 60  1  0
 10 61  1  0
 12 62  1  0
 13 63  1  0
 14 64  1  0
 15 65  1  0
 16 66  1  0
 19 67  1  0
 20 68  1  6
 21 69  1  0
 21 70  1  0
 22 71  1  0
 22 72  1  0
 25 73  1  0
 27 74  1  0
 27 75  1  0
 27 76  1  0
 28 77  1  0
 28 78  1  0
 28 79  1  0
 29 80  1  0
 29 81  1  0
 29 82  1  0
 32 83  1  0
 33 84  1  1
 34 85  1  0
 34 86  1  0
 34 87  1  0
 37 88  1  0
 38 89  1  6
 39 90  1  0
 40 91  1  0
 42 92  1  0
 42 93  1  0
 42 94  1  0
 45 95  1  0
 45 96  1  0
 46 97  1  0
 47 98  1  0
 47 99  1  0
 47100  1  0
 48101  1  0
 48102  1  0
 48103  1  0
M  END
$$$$
