@<TRIPOS>MOLECULE
*****
 103 103 0 0 0
SMALL
GASTEIGER

@<TRIPOS>ATOM
      1 C          -4.6908    1.6889   -2.8821 C.3     1  UNL1       -0.0650
      2 C          -3.2242    1.6347   -2.5725 C.3     1  UNL1       -0.0512
      3 C          -2.6427    0.2775   -2.4189 C.3     1  UNL1       -0.0170
      4 C          -2.8327   -0.5562   -3.6526 C.3     1  UNL1       -0.0603
      5 C          -3.0429   -0.4146   -1.1687 C.3     1  UNL1        0.1050
      6 N          -4.4655   -0.5820   -1.0902 N.am    1  UNL1       -0.2696
      7 C          -5.1020   -1.8686   -1.2073 C.2     1  UNL1        0.4012
      8 O          -4.3766   -2.8547   -1.3798 O.2     1  UNL1       -0.2265
      9 O          -6.4500   -2.0372   -1.1371 O.3     1  UNL1       -0.4456
     10 C          -7.1857   -3.2256   -1.2358 C.3     1  UNL1        0.1191
     11 C          -6.9041   -4.2470   -0.2364 C.ar    1  UNL1       -0.0103
     12 C          -5.9846   -5.2415   -0.4663 C.ar    1  UNL1       -0.0554
     13 C          -5.7681   -6.1723    0.5297 C.ar    1  UNL1       -0.0614
     14 C          -6.4738   -6.0800    1.7167 C.ar    1  UNL1       -0.0617
     15 C          -7.3849   -5.0963    1.9469 C.ar    1  UNL1       -0.0614
     16 C          -7.6044   -4.1698    0.9637 C.ar    1  UNL1       -0.0554
     17 C          -2.5790    0.3187    0.0551 C.2     1  UNL1        0.2343
     18 O          -3.4706    0.5829    0.9054 O.2     1  UNL1       -0.2738
     19 N          -1.2279    0.6797    0.2252 N.am    1  UNL1       -0.3025
     20 C          -0.6649    1.3897    1.3317 C.3     1  UNL1        0.0999
     21 C          -1.5914    2.1100    2.2451 C.3     1  UNL1       -0.0177
     22 C          -2.2919    3.2346    1.5474 C.3     1  UNL1        0.0261
     23 C          -1.3177    4.3203    1.1531 C.2     1  UNL1        0.2135
     24 O          -0.1735    4.2849    1.6369 O.2     1  UNL1       -0.2758
     25 N          -1.7177    5.3381    0.2567 N.am    1  UNL1       -0.3106
     26 C          -0.8128    6.4065   -0.1557 C.3     1  UNL1        0.0262
     27 C           0.4146    5.8369   -0.8514 C.3     1  UNL1       -0.0442
     28 C          -1.5658    7.3263   -1.0637 C.3     1  UNL1       -0.0442
     29 C          -0.3234    7.0980    1.0971 C.3     1  UNL1       -0.0442
     30 C           0.4346    0.6524    1.9630 C.2     1  UNL1        0.2339
     31 O           1.0311    1.0675    2.9975 O.2     1  UNL1       -0.2738
     32 N           0.9204   -0.6015    1.4493 N.am    1  UNL1       -0.3027
     33 C           2.0046   -1.3409    2.0568 C.3     1  UNL1        0.0966
     34 C           1.5472   -2.7560    2.2789 C.3     1  UNL1       -0.0381
     35 C           3.2473   -1.2512    1.2235 C.2     1  UNL1        0.2335
     36 O           3.1566   -0.5572    0.1894 O.2     1  UNL1       -0.2738
     37 N           4.4395   -1.8876    1.5549 N.am    1  UNL1       -0.3075
     38 C           5.6947   -1.9210    0.8738 C.3     1  UNL1        0.0432
     39 C           6.8498   -1.5181    1.6676 C.2     1  UNL1       -0.0464
     40 C           8.0964   -1.6768    1.2661 C.2     1  UNL1        0.0495
     41 S           9.4028   -1.1403    2.3353 S.O2    1  UNL1       -0.0127
     42 C           9.1838    0.5858    2.6216 C.3     1  UNL1        0.0589
     43 O          10.6925   -1.4596    1.6364 O.2     1  UNL1       -0.1702
     44 O           9.2945   -1.9085    3.6399 O.2     1  UNL1       -0.1702
     45 C           5.7005   -1.4441   -0.5599 C.3     1  UNL1       -0.0285
     46 C           4.8777   -2.2975   -1.4883 C.3     1  UNL1       -0.0448
     47 C           4.9197   -1.7212   -2.8926 C.3     1  UNL1       -0.0626
     48 C           5.5695   -3.6869   -1.6319 C.3     1  UNL1       -0.0626
     49 H          -5.1006    0.7018   -3.2092 H       1  UNL1        0.0230
     50 H          -5.3064    2.2055   -2.1248 H       1  UNL1        0.0230
     51 H          -4.8115    2.3349   -3.8128 H       1  UNL1        0.0230
     52 H          -3.0823    2.2422   -1.6232 H       1  UNL1        0.0266
     53 H          -2.6888    2.2431   -3.3564 H       1  UNL1        0.0266
     54 H          -1.4867    0.3636   -2.3471 H       1  UNL1        0.0321
     55 H          -3.8523   -0.9629   -3.7623 H       1  UNL1        0.0233
     56 H          -2.0524   -1.3480   -3.7009 H       1  UNL1        0.0233
     57 H          -2.6454    0.0925   -4.5342 H       1  UNL1        0.0233
     58 H          -2.5547   -1.4488   -1.1317 H       1  UNL1        0.0598
     59 H          -5.1197    0.2103   -0.9252 H       1  UNL1        0.1528
     60 H          -6.9971   -3.6161   -2.2827 H       1  UNL1        0.0749
     61 H          -8.2700   -2.9392   -1.2589 H       1  UNL1        0.0749
     62 H          -5.4215   -5.3523   -1.3745 H       1  UNL1        0.0621
     63 H          -5.0582   -6.9592    0.3815 H       1  UNL1        0.0618
     64 H          -6.2775   -6.8212    2.4632 H       1  UNL1        0.0618
     65 H          -7.9046   -5.0727    2.8862 H       1  UNL1        0.0618
     66 H          -8.3174   -3.3953    1.1367 H       1  UNL1        0.0621
     67 H          -0.5671    0.4015   -0.5327 H       1  UNL1        0.1495
     68 H          -0.1239    2.2983    0.8051 H       1  UNL1        0.0595
     69 H          -0.9507    2.5507    3.0567 H       1  UNL1        0.0292
     70 H          -2.3722    1.4732    2.7162 H       1  UNL1        0.0292
     71 H          -2.8256    2.9846    0.6220 H       1  UNL1        0.0359
     72 H          -3.0855    3.6910    2.2138 H       1  UNL1        0.0359
     73 H          -2.7052    5.2842   -0.0986 H       1  UNL1        0.1492
     74 H           1.1580    5.5444   -0.0708 H       1  UNL1        0.0250
     75 H           0.1742    5.0154   -1.5269 H       1  UNL1        0.0250
     76 H           0.9019    6.6477   -1.4280 H       1  UNL1        0.0250
     77 H          -2.6402    7.3606   -0.8787 H       1  UNL1        0.0250
     78 H          -1.1544    8.3753   -1.0203 H       1  UNL1        0.0250
     79 H          -1.4167    7.0191   -2.1385 H       1  UNL1        0.0250
     80 H           0.0495    8.1295    0.8411 H       1  UNL1        0.0250
     81 H           0.5365    6.5046    1.4789 H       1  UNL1        0.0250
     82 H          -1.0776    7.1139    1.8963 H       1  UNL1        0.0250
     83 H           0.4454   -0.9709    0.5937 H       1  UNL1        0.1495
     84 H           2.2174   -0.8124    3.0318 H       1  UNL1        0.0592
     85 H           0.4580   -2.8146    2.2074 H       1  UNL1        0.0252
     86 H           1.9460   -3.3559    1.4086 H       1  UNL1        0.0252
     87 H           1.9425   -3.1843    3.2290 H       1  UNL1        0.0252
     88 H           4.4098   -2.4465    2.4722 H       1  UNL1        0.1493
     89 H           5.8244   -3.0805    0.6828 H       1  UNL1        0.0543
     90 H           6.6265   -1.0603    2.6508 H       1  UNL1        0.0603
     91 H           8.2858   -2.1263    0.3010 H       1  UNL1        0.0816
     92 H           9.9800    1.1755    2.1376 H       1  UNL1        0.0468
     93 H           9.2390    0.7583    3.7350 H       1  UNL1        0.0468
     94 H           8.1643    0.9259    2.2845 H       1  UNL1        0.0468
     95 H           6.7749   -1.4546   -0.8878 H       1  UNL1        0.0289
     96 H           5.3020   -0.4173   -0.5859 H       1  UNL1        0.0289
     97 H           3.8774   -2.5203   -1.1719 H       1  UNL1        0.0296
     98 H           4.6837   -0.6380   -2.8368 H       1  UNL1        0.0232
     99 H           4.2174   -2.2362   -3.5539 H       1  UNL1        0.0232
    100 H           5.9559   -1.8124   -3.2751 H       1  UNL1        0.0232
    101 H           5.2230   -4.3233   -0.8031 H       1  UNL1        0.0232
    102 H           5.2183   -4.0800   -2.6079 H       1  UNL1        0.0232
    103 H           6.6458   -3.5171   -1.6450 H       1  UNL1        0.0232
@<TRIPOS>BOND
     1     1     2    1
     2     2     3    1
     3     3     4    1
     4     3     5    1
     5     5     6    1
     6     6     7   am
     7     7     8    2
     8     7     9    1
     9     9    10    1
    10    10    11    1
    11    11    12   ar
    12    12    13   ar
    13    13    14   ar
    14    14    15   ar
    15    15    16   ar
    16     5    17    1
    17    17    18    2
    18    17    19   am
    19    19    20    1
    20    20    21    1
    21    21    22    1
    22    22    23    1
    23    23    24    2
    24    23    25   am
    25    25    26    1
    26    26    27    1
    27    26    28    1
    28    26    29    1
    29    20    30    1
    30    30    31    2
    31    30    32   am
    32    32    33    1
    33    33    34    1
    34    33    35    1
    35    35    36    2
    36    35    37   am
    37    37    38    1
    38    38    39    1
    39    39    40    2
    40    40    41    1
    41    41    42    1
    42    41    43    2
    43    41    44    2
    44    38    45    1
    45    45    46    1
    46    46    47    1
    47    46    48    1
    48    16    11   ar
    49     1    49    1
    50     1    50    1
    51     1    51    1
    52     2    52    1
    53     2    53    1
    54     3    54    1
    55     4    55    1
    56     4    56    1
    57     4    57    1
    58     5    58    1
    59     6    59    1
    60    10    60    1
    61    10    61    1
    62    12    62    1
    63    13    63    1
    64    14    64    1
    65    15    65    1
    66    16    66    1
    67    19    67    1
    68    20    68    1
    69    21    69    1
    70    21    70    1
    71    22    71    1
    72    22    72    1
    73    25    73    1
    74    27    74    1
    75    27    75    1
    76    27    76    1
    77    28    77    1
    78    28    78    1
    79    28    79    1
    80    29    80    1
    81    29    81    1
    82    29    82    1
    83    32    83    1
    84    33    84    1
    85    34    85    1
    86    34    86    1
    87    34    87    1
    88    37    88    1
    89    38    89    1
    90    39    90    1
    91    40    91    1
    92    42    92    1
    93    42    93    1
    94    42    94    1
    95    45    95    1
    96    45    96    1
    97    46    97    1
    98    47    98    1
    99    47    99    1
   100    47   100    1
   101    48   101    1
   102    48   102    1
   103    48   103    1
