
     RDKit          3D

 44 47  0  0  0  0  0  0  0  0999 V2000
    7.3603   -0.2915   -1.2891 C   0  0  0  0  0  0  0  0  0  0  0  0
    6.7122   -0.8011    0.2961 S   0  0  0  0  0  4  0  0  0  0  0  0
    7.2275    0.0413    1.4454 O   0  0  0  0  0  0  0  0  0  0  0  0
    4.9366   -0.5891    0.2595 C   0  0  0  0  0  0  0  0  0  0  0  0
    4.1428   -1.6346   -0.1562 C   0  0  0  0  0  0  0  0  0  0  0  0
    2.7788   -1.4577   -0.1789 C   0  0  0  0  0  0  0  0  0  0  0  0
    2.1839   -0.2713    0.2000 C   0  0  0  0  0  0  0  0  0  0  0  0
    0.7326   -0.0906    0.1733 C   0  0  0  0  0  0  0  0  0  0  0  0
    0.0787    1.0421    0.5272 C   0  0  0  0  0  0  0  0  0  0  0  0
   -1.2706    0.8153    0.3641 C   0  0  0  0  0  0  0  0  0  0  0  0
   -2.3481    1.7785    0.6310 C   0  0  0  0  0  0  0  0  0  0  0  0
   -3.1495    2.2168   -0.3921 C   0  0  0  0  0  0  0  0  0  0  0  0
   -4.1555    3.1229   -0.1135 C   0  0  0  0  0  0  0  0  0  0  0  0
   -4.3365    3.5617    1.1480 N   0  0  0  0  0  0  0  0  0  0  0  0
   -3.5514    3.1325    2.1513 C   0  0  0  0  0  0  0  0  0  0  0  0
   -2.5411    2.2299    1.9039 C   0  0  0  0  0  0  0  0  0  0  0  0
   -1.3954   -0.4789   -0.0947 C   0  0  0  0  0  0  0  0  0  0  0  0
   -2.6429   -1.1654   -0.4116 C   0  0  0  0  0  0  0  0  0  0  0  0
   -3.5618   -1.3700    0.5938 C   0  0  0  0  0  0  0  0  0  0  0  0
   -4.7730   -2.0233    0.3433 C   0  0  0  0  0  0  0  0  0  0  0  0
   -5.0219   -2.4590   -0.9458 C   0  0  0  0  0  0  0  0  0  0  0  0
   -6.1824   -3.0927   -1.2176 F   0  0  0  0  0  0  0  0  0  0  0  0
   -4.1212   -2.2695   -1.9766 C   0  0  0  0  0  0  0  0  0  0  0  0
   -2.9374   -1.6152   -1.6674 C   0  0  0  0  0  0  0  0  0  0  0  0
   -0.1528   -1.0121   -0.2030 N   0  0  0  0  0  0  0  0  0  0  0  0
    3.0214    0.7453    0.6084 C   0  0  0  0  0  0  0  0  0  0  0  0
    4.3927    0.6258    0.6516 C   0  0  0  0  0  0  0  0  0  0  0  0
    6.5788    0.1810   -1.9368 H   0  0  0  0  0  0  0  0  0  0  0  0
    8.1646    0.4792   -1.1141 H   0  0  0  0  0  0  0  0  0  0  0  0
    7.8007   -1.1394   -1.8554 H   0  0  0  0  0  0  0  0  0  0  0  0
    4.6244   -2.5615   -0.4515 H   0  0  0  0  0  0  0  0  0  0  0  0
    2.1509   -2.2806   -0.5064 H   0  0  0  0  0  0  0  0  0  0  0  0
    0.5213    1.9876    0.8843 H   0  0  0  0  0  0  0  0  0  0  0  0
   -3.0325    1.8852   -1.4192 H   0  0  0  0  0  0  0  0  0  0  0  0
   -4.8238    3.5107   -0.8710 H   0  0  0  0  0  0  0  0  0  0  0  0
   -3.7190    3.5070    3.1759 H   0  0  0  0  0  0  0  0  0  0  0  0
   -1.9108    1.8939    2.7467 H   0  0  0  0  0  0  0  0  0  0  0  0
   -3.4169   -1.0495    1.6201 H   0  0  0  0  0  0  0  0  0  0  0  0
   -5.4889   -2.1797    1.1381 H   0  0  0  0  0  0  0  0  0  0  0  0
   -4.3612   -2.6285   -2.9683 H   0  0  0  0  0  0  0  0  0  0  0  0
   -2.2012   -1.4469   -2.4560 H   0  0  0  0  0  0  0  0  0  0  0  0
    0.0855   -1.9948   -0.5303 H   0  0  0  0  0  0  0  0  0  0  0  0
    2.5869    1.6947    0.9141 H   0  0  0  0  0  0  0  0  0  0  0  0
    5.0150    1.4514    0.9797 H   0  0  0  0  0  0  0  0  0  0  0  0
  1  2  1  0
  2  3  2  0
  2  4  1  0
  4  5  2  0
  5  6  1  0
  6  7  2  0
  7  8  1  0
  8  9  2  0
  9 10  1  0
 10 11  1  0
 11 12  2  0
 12 13  1  0
 13 14  2  0
 14 15  1  0
 15 16  2  0
 10 17  2  0
 17 18  1  0
 18 19  2  0
 19 20  1  0
 20 21  2  0
 21 22  1  0
 21 23  1  0
 23 24  2  0
 17 25  1  0
  7 26  1  0
 26 27  2  0
 27  4  1  0
 25  8  1  0
 16 11  1  0
 24 18  1  0
  1 28  1  0
  1 29  1  0
  1 30  1  0
  5 31  1  0
  6 32  1  0
  9 33  1  0
 12 34  1  0
 13 35  1  0
 15 36  1  0
 16 37  1  0
 19 38  1  0
 20 39  1  0
 23 40  1  0
 24 41  1  0
 25 42  1  0
 26 43  1  0
 27 44  1  0
M  END
$$$$
