@<TRIPOS>MOLECULE
*****
 44 47 0 0 0
SMALL
GASTEIGER

@<TRIPOS>ATOM
      1 C           7.3603   -0.2915   -1.2891 C.3     1  UNL1        0.0163
      2 S           6.7122   -0.8011    0.2961 S.O     1  UNL1        0.0507
      3 O           7.2275    0.0413    1.4454 O.2     1  UNL1       -0.2524
      4 C           4.9366   -0.5891    0.2595 C.ar    1  UNL1        0.0386
      5 C           4.1428   -1.6346   -0.1562 C.ar    1  UNL1       -0.0453
      6 C           2.7788   -1.4577   -0.1789 C.ar    1  UNL1       -0.0515
      7 C           2.1839   -0.2713    0.2000 C.ar    1  UNL1       -0.0016
      8 C           0.7326   -0.0906    0.1733 C.ar    1  UNL1        0.0475
      9 C           0.0787    1.0421    0.5272 C.ar    1  UNL1       -0.0281
     10 C          -1.2706    0.8153    0.3641 C.ar    1  UNL1        0.0081
     11 C          -2.3481    1.7785    0.6310 C.ar    1  UNL1       -0.0130
     12 C          -3.1495    2.2168   -0.3921 C.ar    1  UNL1       -0.0358
     13 C          -4.1555    3.1229   -0.1135 C.ar    1  UNL1        0.0281
     14 N          -4.3365    3.5617    1.1480 N.ar    1  UNL1       -0.2632
     15 C          -3.5514    3.1325    2.1513 C.ar    1  UNL1        0.0281
     16 C          -2.5411    2.2299    1.9039 C.ar    1  UNL1       -0.0358
     17 C          -1.3954   -0.4789   -0.0947 C.ar    1  UNL1        0.0547
     18 C          -2.6429   -1.1654   -0.4116 C.ar    1  UNL1       -0.0009
     19 C          -3.5618   -1.3700    0.5938 C.ar    1  UNL1       -0.0499
     20 C          -4.7730   -2.0233    0.3433 C.ar    1  UNL1       -0.0258
     21 C          -5.0219   -2.4590   -0.9458 C.ar    1  UNL1        0.1234
     22 F          -6.1824   -3.0927   -1.2176 F       1  UNL1       -0.2055
     23 C          -4.1212   -2.2695   -1.9766 C.ar    1  UNL1       -0.0258
     24 C          -2.9374   -1.6152   -1.6674 C.ar    1  UNL1       -0.0499
     25 N          -0.1528   -1.0121   -0.2030 N.ar    1  UNL1       -0.3537
     26 C           3.0214    0.7453    0.6084 C.ar    1  UNL1       -0.0515
     27 C           4.3927    0.6258    0.6516 C.ar    1  UNL1       -0.0453
     28 H           6.5788    0.1810   -1.9368 H       1  UNL1        0.0368
     29 H           8.1646    0.4792   -1.1141 H       1  UNL1        0.0368
     30 H           7.8007   -1.1394   -1.8554 H       1  UNL1        0.0368
     31 H           4.6244   -2.5615   -0.4515 H       1  UNL1        0.0629
     32 H           2.1509   -2.2806   -0.5064 H       1  UNL1        0.0624
     33 H           0.5213    1.9876    0.8843 H       1  UNL1        0.0645
     34 H          -3.0325    1.8852   -1.4192 H       1  UNL1        0.0639
     35 H          -4.8238    3.5107   -0.8710 H       1  UNL1        0.0830
     36 H          -3.7190    3.5070    3.1759 H       1  UNL1        0.0830
     37 H          -1.9108    1.8939    2.7467 H       1  UNL1        0.0639
     38 H          -3.4169   -1.0495    1.6201 H       1  UNL1        0.0625
     39 H          -5.4889   -2.1797    1.1381 H       1  UNL1        0.0646
     40 H          -4.3612   -2.6285   -2.9683 H       1  UNL1        0.0646
     41 H          -2.2012   -1.4469   -2.4560 H       1  UNL1        0.0625
     42 H           0.0855   -1.9948   -0.5303 H       1  UNL1        0.1659
     43 H           2.5869    1.6947    0.9141 H       1  UNL1        0.0624
     44 H           5.0150    1.4514    0.9797 H       1  UNL1        0.0629
@<TRIPOS>BOND
     1     1     2    1
     2     2     3    2
     3     2     4    1
     4     4     5   ar
     5     5     6   ar
     6     6     7   ar
     7     7     8    1
     8     8     9   ar
     9     9    10   ar
    10    10    11    1
    11    11    12   ar
    12    12    13   ar
    13    13    14   ar
    14    14    15   ar
    15    15    16   ar
    16    10    17   ar
    17    17    18    1
    18    18    19   ar
    19    19    20   ar
    20    20    21   ar
    21    21    22    1
    22    21    23   ar
    23    23    24   ar
    24    17    25   ar
    25     7    26   ar
    26    26    27   ar
    27    27     4   ar
    28    25     8   ar
    29    16    11   ar
    30    24    18   ar
    31     1    28    1
    32     1    29    1
    33     1    30    1
    34     5    31    1
    35     6    32    1
    36     9    33    1
    37    12    34    1
    38    13    35    1
    39    15    36    1
    40    16    37    1
    41    19    38    1
    42    20    39    1
    43    23    40    1
    44    24    41    1
    45    25    42    1
    46    26    43    1
    47    27    44    1
