@<TRIPOS>MOLECULE
*****
 50 52 0 0 0
SMALL
GASTEIGER

@<TRIPOS>ATOM
      1 C           7.2171   -2.2069   -0.0988 C.3     1  UNL1        0.0003
      2 N           6.5696   -1.2689    0.7854 N.pl3   1  UNL1       -0.3164
      3 C           5.5923   -0.3401    0.3519 C.ar    1  UNL1        0.2195
      4 N           5.9801    0.8727   -0.0187 N.ar    1  UNL1       -0.1998
      5 C           5.0564    1.7833   -0.4324 C.ar    1  UNL1        0.1332
      6 C           5.5704    3.1106   -0.8285 C.3     1  UNL1       -0.0044
      7 N           3.7632    1.4440   -0.4610 N.ar    1  UNL1       -0.1996
      8 C           3.3240    0.2250   -0.0941 C.ar    1  UNL1        0.2224
      9 N           1.9490   -0.1368   -0.1080 N.pl3   1  UNL1       -0.2995
     10 C           1.6086   -1.5306    0.0767 C.3     1  UNL1        0.0156
     11 C           0.4010   -1.5125    1.0226 C.3     1  UNL1       -0.0260
     12 C          -0.7605   -1.0747    0.1542 C.3     1  UNL1        0.0384
     13 C          -1.9736   -0.9888    0.9694 C.2     1  UNL1        0.2165
     14 O          -1.9286   -1.2835    2.1841 O.2     1  UNL1       -0.2755
     15 N          -3.2090   -0.5768    0.4168 N.am    1  UNL1       -0.3109
     16 C          -4.4174   -0.4952    1.2393 C.3     1  UNL1        0.0381
     17 C          -5.5294   -0.0178    0.3902 C.ar    1  UNL1       -0.0130
     18 C          -6.5012   -0.9080   -0.0706 C.ar    1  UNL1       -0.0559
     19 C          -7.5223   -0.4216   -0.8603 C.ar    1  UNL1       -0.0614
     20 C          -7.5640    0.9191   -1.1773 C.ar    1  UNL1       -0.0605
     21 C          -6.5924    1.7816   -0.7109 C.ar    1  UNL1       -0.0440
     22 C          -5.5646    1.3241    0.0773 C.ar    1  UNL1        0.0564
     23 C          -4.5415    2.1861    0.5788 C.1     1  UNL1        0.0995
     24 N          -3.7173    2.8977    0.9987 N.1     1  UNL1       -0.1909
     25 C          -0.4217    0.1720   -0.5826 C.3     1  UNL1       -0.0260
     26 C           0.8812    0.8113   -0.2770 C.3     1  UNL1        0.0156
     27 N           4.2807   -0.6503    0.3109 N.ar    1  UNL1       -0.1810
     28 H           8.1699   -2.5641    0.3647 H       1  UNL1        0.0426
     29 H           6.5952   -3.1382   -0.2330 H       1  UNL1        0.0426
     30 H           7.3742   -1.8091   -1.1208 H       1  UNL1        0.0426
     31 H           6.8323   -1.2716    1.7905 H       1  UNL1        0.1486
     32 H           5.6941    3.8174    0.0036 H       1  UNL1        0.0308
     33 H           6.5475    3.0138   -1.3796 H       1  UNL1        0.0308
     34 H           4.8737    3.5627   -1.5795 H       1  UNL1        0.0308
     35 H           1.2694   -1.9125   -0.9173 H       1  UNL1        0.0465
     36 H           2.4404   -2.1240    0.4919 H       1  UNL1        0.0465
     37 H           0.2452   -2.4921    1.4883 H       1  UNL1        0.0288
     38 H           0.5550   -0.7000    1.7896 H       1  UNL1        0.0288
     39 H          -0.9108   -1.9502   -0.5604 H       1  UNL1        0.0395
     40 H          -3.2314   -0.3364   -0.5872 H       1  UNL1        0.1490
     41 H          -4.2880    0.2638    2.0579 H       1  UNL1        0.0512
     42 H          -4.6389   -1.4822    1.7116 H       1  UNL1        0.0512
     43 H          -6.4658   -1.9656    0.1828 H       1  UNL1        0.0621
     44 H          -8.3100   -1.0534   -1.2519 H       1  UNL1        0.0618
     45 H          -8.3630    1.3396   -1.8040 H       1  UNL1        0.0618
     46 H          -6.6403    2.8273   -0.9687 H       1  UNL1        0.0630
     47 H          -1.2169    0.9565   -0.4951 H       1  UNL1        0.0288
     48 H          -0.4266   -0.0744   -1.6883 H       1  UNL1        0.0288
     49 H           1.1352    1.4611   -1.1640 H       1  UNL1        0.0465
     50 H           0.8096    1.5164    0.5863 H       1  UNL1        0.0465
@<TRIPOS>BOND
     1     1     2    1
     2     2     3    1
     3     3     4   ar
     4     4     5   ar
     5     5     6    1
     6     5     7   ar
     7     7     8   ar
     8     8     9    1
     9     9    10    1
    10    10    11    1
    11    11    12    1
    12    12    13    1
    13    13    14    2
    14    13    15   am
    15    15    16    1
    16    16    17    1
    17    17    18   ar
    18    18    19   ar
    19    19    20   ar
    20    20    21   ar
    21    21    22   ar
    22    22    23    1
    23    23    24    3
    24    12    25    1
    25    25    26    1
    26     8    27   ar
    27    27     3   ar
    28    26     9    1
    29    22    17   ar
    30     1    28    1
    31     1    29    1
    32     1    30    1
    33     2    31    1
    34     6    32    1
    35     6    33    1
    36     6    34    1
    37    10    35    1
    38    10    36    1
    39    11    37    1
    40    11    38    1
    41    12    39    1
    42    15    40    1
    43    16    41    1
    44    16    42    1
    45    18    43    1
    46    19    44    1
    47    20    45    1
    48    21    46    1
    49    25    47    1
    50    25    48    1
    51    26    49    1
    52    26    50    1
