
     RDKit          3D

 50 52  0  0  0  0  0  0  0  0999 V2000
    7.2171   -2.2069   -0.0988 C   0  0  0  0  0  0  0  0  0  0  0  0
    6.5696   -1.2689    0.7854 N   0  0  0  0  0  0  0  0  0  0  0  0
    5.5923   -0.3401    0.3519 C   0  0  0  0  0  0  0  0  0  0  0  0
    5.9801    0.8727   -0.0187 N   0  0  0  0  0  0  0  0  0  0  0  0
    5.0564    1.7833   -0.4324 C   0  0  0  0  0  0  0  0  0  0  0  0
    5.5704    3.1106   -0.8285 C   0  0  0  0  0  0  0  0  0  0  0  0
    3.7632    1.4440   -0.4610 N   0  0  0  0  0  0  0  0  0  0  0  0
    3.3240    0.2250   -0.0941 C   0  0  0  0  0  0  0  0  0  0  0  0
    1.9490   -0.1368   -0.1080 N   0  0  0  0  0  0  0  0  0  0  0  0
    1.6086   -1.5306    0.0767 C   0  0  0  0  0  0  0  0  0  0  0  0
    0.4010   -1.5125    1.0226 C   0  0  0  0  0  0  0  0  0  0  0  0
   -0.7605   -1.0747    0.1542 C   0  0  0  0  0  0  0  0  0  0  0  0
   -1.9736   -0.9888    0.9694 C   0  0  0  0  0  0  0  0  0  0  0  0
   -1.9286   -1.2835    2.1841 O   0  0  0  0  0  0  0  0  0  0  0  0
   -3.2090   -0.5768    0.4168 N   0  0  0  0  0  0  0  0  0  0  0  0
   -4.4174   -0.4952    1.2393 C   0  0  0  0  0  0  0  0  0  0  0  0
   -5.5294   -0.0178    0.3902 C   0  0  0  0  0  0  0  0  0  0  0  0
   -6.5012   -0.9080   -0.0706 C   0  0  0  0  0  0  0  0  0  0  0  0
   -7.5223   -0.4216   -0.8603 C   0  0  0  0  0  0  0  0  0  0  0  0
   -7.5640    0.9191   -1.1773 C   0  0  0  0  0  0  0  0  0  0  0  0
   -6.5924    1.7816   -0.7109 C   0  0  0  0  0  0  0  0  0  0  0  0
   -5.5646    1.3241    0.0773 C   0  0  0  0  0  0  0  0  0  0  0  0
   -4.5415    2.1861    0.5788 C   0  0  0  0  0  0  0  0  0  0  0  0
   -3.7173    2.8977    0.9987 N   0  0  0  0  0  0  0  0  0  0  0  0
   -0.4217    0.1720   -0.5826 C   0  0  0  0  0  0  0  0  0  0  0  0
    0.8812    0.8113   -0.2770 C   0  0  0  0  0  0  0  0  0  0  0  0
    4.2807   -0.6503    0.3109 N   0  0  0  0  0  0  0  0  0  0  0  0
    8.1699   -2.5641    0.3647 H   0  0  0  0  0  0  0  0  0  0  0  0
    6.5952   -3.1382   -0.2330 H   0  0  0  0  0  0  0  0  0  0  0  0
    7.3742   -1.8091   -1.1208 H   0  0  0  0  0  0  0  0  0  0  0  0
    6.8323   -1.2716    1.7905 H   0  0  0  0  0  0  0  0  0  0  0  0
    5.6941    3.8174    0.0036 H   0  0  0  0  0  0  0  0  0  0  0  0
    6.5475    3.0138   -1.3796 H   0  0  0  0  0  0  0  0  0  0  0  0
    4.8737    3.5627   -1.5795 H   0  0  0  0  0  0  0  0  0  0  0  0
    1.2694   -1.9125   -0.9173 H   0  0  0  0  0  0  0  0  0  0  0  0
    2.4404   -2.1240    0.4919 H   0  0  0  0  0  0  0  0  0  0  0  0
    0.2452   -2.4921    1.4883 H   0  0  0  0  0  0  0  0  0  0  0  0
    0.5550   -0.7000    1.7896 H   0  0  0  0  0  0  0  0  0  0  0  0
   -0.9108   -1.9502   -0.5604 H   0  0  0  0  0  0  0  0  0  0  0  0
   -3.2314   -0.3364   -0.5872 H   0  0  0  0  0  0  0  0  0  0  0  0
   -4.2880    0.2638    2.0579 H   0  0  0  0  0  0  0  0  0  0  0  0
   -4.6389   -1.4822    1.7116 H   0  0  0  0  0  0  0  0  0  0  0  0
   -6.4658   -1.9656    0.1828 H   0  0  0  0  0  0  0  0  0  0  0  0
   -8.3100   -1.0534   -1.2519 H   0  0  0  0  0  0  0  0  0  0  0  0
   -8.3630    1.3396   -1.8040 H   0  0  0  0  0  0  0  0  0  0  0  0
   -6.6403    2.8273   -0.9687 H   0  0  0  0  0  0  0  0  0  0  0  0
   -1.2169    0.9565   -0.4951 H   0  0  0  0  0  0  0  0  0  0  0  0
   -0.4266   -0.0744   -1.6883 H   0  0  0  0  0  0  0  0  0  0  0  0
    1.1352    1.4611   -1.1640 H   0  0  0  0  0  0  0  0  0  0  0  0
    0.8096    1.5164    0.5863 H   0  0  0  0  0  0  0  0  0  0  0  0
  1  2  1  0
  2  3  1  0
  3  4  2  0
  4  5  1  0
  5  6  1  0
  5  7  2  0
  7  8  1  0
  8  9  1  0
  9 10  1  0
 10 11  1  0
 11 12  1  0
 12 13  1  0
 13 14  2  0
 13 15  1  0
 15 16  1  0
 16 17  1  0
 17 18  2  0
 18 19  1  0
 19 20  2  0
 20 21  1  0
 21 22  2  0
 22 23  1  0
 23 24  3  0
 12 25  1  0
 25 26  1  0
  8 27  2  0
 27  3  1  0
 26  9  1  0
 22 17  1  0
  1 28  1  0
  1 29  1  0
  1 30  1  0
  2 31  1  0
  6 32  1  0
  6 33  1  0
  6 34  1  0
 10 35  1  0
 10 36  1  0
 11 37  1  0
 11 38  1  0
 12 39  1  0
 15 40  1  0
 16 41  1  0
 16 42  1  0
 18 43  1  0
 19 44  1  0
 20 45  1  0
 21 46  1  0
 25 47  1  0
 25 48  1  0
 26 49  1  0
 26 50  1  0
M  END
$$$$
