@<TRIPOS>MOLECULE
*****
 54 58 0 0 0
SMALL
GASTEIGER

@<TRIPOS>ATOM
      1 C          -6.5598    0.3316    2.2411 C.3     1  UNL1       -0.0222
      2 C          -5.8846    0.1889    0.9324 C.ar    1  UNL1        0.0440
      3 C          -6.6374   -0.0853   -0.2107 C.ar    1  UNL1       -0.0105
      4 C          -6.0006   -0.2169   -1.4269 C.ar    1  UNL1        0.1476
      5 C          -6.8097   -0.5085   -2.6374 C.3     1  UNL1        0.4343
      6 F          -6.0040   -0.5340   -3.7582 F       1  UNL1       -0.1644
      7 F          -7.8308    0.4164   -2.8029 F       1  UNL1       -0.1644
      8 F          -7.3569   -1.7775   -2.5115 F       1  UNL1       -0.1644
      9 N          -4.6640   -0.0719   -1.4496 N.ar    1  UNL1       -0.2234
     10 C          -3.9450    0.1965   -0.3186 C.ar    1  UNL1        0.1610
     11 C          -2.6008    0.3855   -0.0822 C.ar    1  UNL1        0.0349
     12 C          -2.4144    0.6294    1.2579 C.ar    1  UNL1        0.0839
     13 N          -3.6458    0.5839    1.8080 N.ar    1  UNL1       -0.1681
     14 N          -4.5468    0.3283    0.8751 N.ar    1  UNL1       -0.2183
     15 C          -0.9515    0.8410    1.5513 C.3     1  UNL1        0.0439
     16 N          -0.3021    0.3251    0.3635 N.3     1  UNL1       -0.2893
     17 C           0.8830    1.1121    0.1414 C.3     1  UNL1        0.0126
     18 C           1.7742    0.9789    1.3380 C.3     1  UNL1       -0.0367
     19 C           3.2331    0.8020    0.9808 C.3     1  UNL1       -0.0433
     20 C           3.3847   -0.4215    0.0940 C.3     1  UNL1        0.0022
     21 C           4.8104   -0.6084   -0.2570 C.ar    1  UNL1       -0.0048
     22 C           5.6068   -1.4611    0.4782 C.ar    1  UNL1       -0.0174
     23 C           6.9377   -1.6754    0.1921 C.ar    1  UNL1        0.1588
     24 F           7.6858   -2.5197    0.9369 F       1  UNL1       -0.2025
     25 C           7.5103   -1.0168   -0.8703 C.ar    1  UNL1        0.1611
     26 F           8.8167   -1.2144   -1.1673 F       1  UNL1       -0.2024
     27 C           6.7442   -0.1601   -1.6228 C.ar    1  UNL1        0.0119
     28 C           5.3941    0.0453   -1.3174 C.ar    1  UNL1        0.1298
     29 F           4.7306    0.9071   -2.1099 F       1  UNL1       -0.2051
     30 C           2.4382   -0.4494   -1.0517 C.3     1  UNL1        0.0132
     31 N           1.5447   -1.6083   -1.0202 N.3     1  UNL1       -0.3266
     32 C           1.5813    0.7880   -1.1530 C.3     1  UNL1       -0.0215
     33 C          -1.2596    0.4300   -0.7110 C.3     1  UNL1        0.0300
     34 H          -6.7618    1.4042    2.4777 H       1  UNL1        0.0293
     35 H          -5.8930   -0.0454    3.0328 H       1  UNL1        0.0293
     36 H          -7.5203   -0.2087    2.2911 H       1  UNL1        0.0293
     37 H          -7.7124   -0.1997   -0.1790 H       1  UNL1        0.0656
     38 H          -0.6239    0.2167    2.3988 H       1  UNL1        0.0492
     39 H          -0.8109    1.9114    1.6980 H       1  UNL1        0.0492
     40 H           0.5427    2.1800    0.0578 H       1  UNL1        0.0463
     41 H           1.7128    1.9009    1.9708 H       1  UNL1        0.0280
     42 H           1.4920    0.1381    2.0043 H       1  UNL1        0.0280
     43 H           3.7716    0.5715    1.9273 H       1  UNL1        0.0272
     44 H           3.6247    1.7158    0.5336 H       1  UNL1        0.0272
     45 H           3.0855   -1.2880    0.7624 H       1  UNL1        0.0365
     46 H           5.1888   -1.9910    1.3152 H       1  UNL1        0.0651
     47 H           7.2165    0.3435   -2.4496 H       1  UNL1        0.0676
     48 H           3.0069   -0.5572   -1.9939 H       1  UNL1        0.0465
     49 H           1.1968   -1.6819   -0.0417 H       1  UNL1        0.1185
     50 H           2.0206   -2.4716   -1.3492 H       1  UNL1        0.1185
     51 H           2.2511    1.6414   -1.3767 H       1  UNL1        0.0295
     52 H           0.8435    0.6399   -1.9460 H       1  UNL1        0.0295
     53 H          -1.1648   -0.4884   -1.3344 H       1  UNL1        0.0478
     54 H          -1.1285    1.3078   -1.3489 H       1  UNL1        0.0478
@<TRIPOS>BOND
     1     1     2    1
     2     2     3   ar
     3     3     4   ar
     4     4     5    1
     5     5     6    1
     6     5     7    1
     7     5     8    1
     8     4     9   ar
     9     9    10   ar
    10    10    11   ar
    11    11    12   ar
    12    12    13   ar
    13    13    14   ar
    14    12    15    1
    15    15    16    1
    16    16    17    1
    17    17    18    1
    18    18    19    1
    19    19    20    1
    20    20    21    1
    21    21    22   ar
    22    22    23   ar
    23    23    24    1
    24    23    25   ar
    25    25    26    1
    26    25    27   ar
    27    27    28   ar
    28    28    29    1
    29    20    30    1
    30    30    31    1
    31    30    32    1
    32    16    33    1
    33    14     2   ar
    34    32    17    1
    35    14    10   ar
    36    28    21   ar
    37    33    11    1
    38     1    34    1
    39     1    35    1
    40     1    36    1
    41     3    37    1
    42    15    38    1
    43    15    39    1
    44    17    40    1
    45    18    41    1
    46    18    42    1
    47    19    43    1
    48    19    44    1
    49    20    45    1
    50    22    46    1
    51    27    47    1
    52    30    48    1
    53    31    49    1
    54    31    50    1
    55    32    51    1
    56    32    52    1
    57    33    53    1
    58    33    54    1
