
     RDKit          3D

 54 58  0  0  0  0  0  0  0  0999 V2000
   -6.5598    0.3316    2.2411 C   0  0  0  0  0  0  0  0  0  0  0  0
   -5.8846    0.1889    0.9324 C   0  0  0  0  0  0  0  0  0  0  0  0
   -6.6374   -0.0853   -0.2107 C   0  0  0  0  0  0  0  0  0  0  0  0
   -6.0006   -0.2169   -1.4269 C   0  0  0  0  0  0  0  0  0  0  0  0
   -6.8097   -0.5085   -2.6374 C   0  0  0  0  0  0  0  0  0  0  0  0
   -6.0040   -0.5340   -3.7582 F   0  0  0  0  0  0  0  0  0  0  0  0
   -7.8308    0.4164   -2.8029 F   0  0  0  0  0  0  0  0  0  0  0  0
   -7.3569   -1.7775   -2.5115 F   0  0  0  0  0  0  0  0  0  0  0  0
   -4.6640   -0.0719   -1.4496 N   0  0  0  0  0  0  0  0  0  0  0  0
   -3.9450    0.1965   -0.3186 C   0  0  0  0  0  0  0  0  0  0  0  0
   -2.6008    0.3855   -0.0822 C   0  0  0  0  0  0  0  0  0  0  0  0
   -2.4144    0.6294    1.2579 C   0  0  0  0  0  0  0  0  0  0  0  0
   -3.6458    0.5839    1.8080 N   0  0  0  0  0  0  0  0  0  0  0  0
   -4.5468    0.3283    0.8751 N   0  0  0  0  0  0  0  0  0  0  0  0
   -0.9515    0.8410    1.5513 C   0  0  0  0  0  0  0  0  0  0  0  0
   -0.3021    0.3251    0.3635 N   0  0  0  0  0  0  0  0  0  0  0  0
    0.8830    1.1121    0.1414 C   0  0  1  0  0  0  0  0  0  0  0  0
    1.7742    0.9789    1.3380 C   0  0  0  0  0  0  0  0  0  0  0  0
    3.2331    0.8020    0.9808 C   0  0  0  0  0  0  0  0  0  0  0  0
    3.3847   -0.4215    0.0940 C   0  0  2  0  0  0  0  0  0  0  0  0
    4.8104   -0.6084   -0.2570 C   0  0  0  0  0  0  0  0  0  0  0  0
    5.6068   -1.4611    0.4782 C   0  0  0  0  0  0  0  0  0  0  0  0
    6.9377   -1.6754    0.1921 C   0  0  0  0  0  0  0  0  0  0  0  0
    7.6858   -2.5197    0.9369 F   0  0  0  0  0  0  0  0  0  0  0  0
    7.5103   -1.0168   -0.8703 C   0  0  0  0  0  0  0  0  0  0  0  0
    8.8167   -1.2144   -1.1673 F   0  0  0  0  0  0  0  0  0  0  0  0
    6.7442   -0.1601   -1.6228 C   0  0  0  0  0  0  0  0  0  0  0  0
    5.3941    0.0453   -1.3174 C   0  0  0  0  0  0  0  0  0  0  0  0
    4.7306    0.9071   -2.1099 F   0  0  0  0  0  0  0  0  0  0  0  0
    2.4382   -0.4494   -1.0517 C   0  0  1  0  0  0  0  0  0  0  0  0
    1.5447   -1.6083   -1.0202 N   0  0  0  0  0  0  0  0  0  0  0  0
    1.5813    0.7880   -1.1530 C   0  0  0  0  0  0  0  0  0  0  0  0
   -1.2596    0.4300   -0.7110 C   0  0  0  0  0  0  0  0  0  0  0  0
   -6.7618    1.4042    2.4777 H   0  0  0  0  0  0  0  0  0  0  0  0
   -5.8930   -0.0454    3.0328 H   0  0  0  0  0  0  0  0  0  0  0  0
   -7.5203   -0.2087    2.2911 H   0  0  0  0  0  0  0  0  0  0  0  0
   -7.7124   -0.1997   -0.1790 H   0  0  0  0  0  0  0  0  0  0  0  0
   -0.6239    0.2167    2.3988 H   0  0  0  0  0  0  0  0  0  0  0  0
   -0.8109    1.9114    1.6980 H   0  0  0  0  0  0  0  0  0  0  0  0
    0.5427    2.1800    0.0578 H   0  0  0  0  0  0  0  0  0  0  0  0
    1.7128    1.9009    1.9708 H   0  0  0  0  0  0  0  0  0  0  0  0
    1.4920    0.1381    2.0043 H   0  0  0  0  0  0  0  0  0  0  0  0
    3.7716    0.5715    1.9273 H   0  0  0  0  0  0  0  0  0  0  0  0
    3.6247    1.7158    0.5336 H   0  0  0  0  0  0  0  0  0  0  0  0
    3.0855   -1.2880    0.7624 H   0  0  0  0  0  0  0  0  0  0  0  0
    5.1888   -1.9910    1.3152 H   0  0  0  0  0  0  0  0  0  0  0  0
    7.2165    0.3435   -2.4496 H   0  0  0  0  0  0  0  0  0  0  0  0
    3.0069   -0.5572   -1.9939 H   0  0  0  0  0  0  0  0  0  0  0  0
    1.1968   -1.6819   -0.0417 H   0  0  0  0  0  0  0  0  0  0  0  0
    2.0206   -2.4716   -1.3492 H   0  0  0  0  0  0  0  0  0  0  0  0
    2.2511    1.6414   -1.3767 H   0  0  0  0  0  0  0  0  0  0  0  0
    0.8435    0.6399   -1.9460 H   0  0  0  0  0  0  0  0  0  0  0  0
   -1.1648   -0.4884   -1.3344 H   0  0  0  0  0  0  0  0  0  0  0  0
   -1.1285    1.3078   -1.3489 H   0  0  0  0  0  0  0  0  0  0  0  0
  1  2  1  0
  2  3  2  0
  3  4  1  0
  4  5  1  0
  5  6  1  0
  5  7  1  0
  5  8  1  0
  4  9  2  0
  9 10  1  0
 10 11  2  0
 11 12  1  0
 12 13  2  0
 13 14  1  0
 12 15  1  0
 15 16  1  0
 16 17  1  0
 17 18  1  0
 18 19  1  0
 19 20  1  0
 20 21  1  0
 21 22  2  0
 22 23  1  0
 23 24  1  0
 23 25  2  0
 25 26  1  0
 25 27  1  0
 27 28  2  0
 28 29  1  0
 20 30  1  0
 30 31  1  0
 30 32  1  0
 16 33  1  0
 14  2  1  0
 32 17  1  0
 14 10  1  0
 28 21  1  0
 33 11  1  0
  1 34  1  0
  1 35  1  0
  1 36  1  0
  3 37  1  0
 15 38  1  0
 15 39  1  0
 17 40  1  6
 18 41  1  0
 18 42  1  0
 19 43  1  0
 19 44  1  0
 20 45  1  1
 22 46  1  0
 27 47  1  0
 30 48  1  6
 31 49  1  0
 31 50  1  0
 32 51  1  0
 32 52  1  0
 33 53  1  0
 33 54  1  0
M  END
$$$$
