
     RDKit          3D

 33 35  0  0  0  0  0  0  0  0999 V2000
    6.6912    0.5456    0.1191 N   0  0  0  0  0  0  0  0  0  0  0  0
    5.7431   -0.8715    0.3324 S   0  0  0  0  0  0  0  0  0  0  0  0
    6.0451   -1.8203   -0.7801 O   0  0  0  0  0  0  0  0  0  0  0  0
    6.0769   -1.5449    1.6356 O   0  0  0  0  0  0  0  0  0  0  0  0
    4.0219   -0.5101    0.3150 C   0  0  0  0  0  0  0  0  0  0  0  0
    3.4412   -0.4632   -0.9377 C   0  0  0  0  0  0  0  0  0  0  0  0
    2.1172   -0.2035   -1.2019 C   0  0  0  0  0  0  0  0  0  0  0  0
    1.3033    0.0307   -0.0880 C   0  0  0  0  0  0  0  0  0  0  0  0
    1.8624   -0.0115    1.1647 C   0  0  0  0  0  0  0  0  0  0  0  0
    3.1904   -0.2733    1.4094 C   0  0  0  0  0  0  0  0  0  0  0  0
   -0.1161    0.3107   -0.2545 C   0  0  0  0  0  0  0  0  0  0  0  0
   -0.7728    0.3580   -1.4801 C   0  0  0  0  0  0  0  0  0  0  0  0
   -2.0732    0.6468   -1.1710 C   0  0  0  0  0  0  0  0  0  0  0  0
   -2.1646    0.7628    0.1909 C   0  0  0  0  0  0  0  0  0  0  0  0
   -0.9658    0.5545    0.7162 O   0  0  0  0  0  0  0  0  0  0  0  0
   -3.3763    1.0662    0.9631 C   0  0  0  0  0  0  0  0  0  0  0  0
   -4.4965    0.5299    0.5699 C   0  0  0  0  0  0  0  0  0  0  0  0
   -4.7325   -0.5722   -0.8528 S   0  0  0  0  0  0  0  0  0  0  0  0
   -6.2384   -1.3390   -0.1913 C   0  0  0  0  0  0  0  0  0  0  0  0
   -6.6285   -2.4835   -0.5255 O   0  0  0  0  0  0  0  0  0  0  0  0
   -6.7628   -0.3657    0.7042 N   0  0  0  0  0  0  0  0  0  0  0  0
   -5.8637    0.6332    1.1220 C   0  0  0  0  0  0  0  0  0  0  0  0
   -6.1361    1.5856    1.9145 O   0  0  0  0  0  0  0  0  0  0  0  0
    7.1801    0.8721    0.9590 H   0  0  0  0  0  0  0  0  0  0  0  0
    6.2378    1.2825   -0.4572 H   0  0  0  0  0  0  0  0  0  0  0  0
    4.0269   -0.6379   -1.8526 H   0  0  0  0  0  0  0  0  0  0  0  0
    1.7001   -0.1742   -2.1908 H   0  0  0  0  0  0  0  0  0  0  0  0
    1.2884    0.1588    2.0780 H   0  0  0  0  0  0  0  0  0  0  0  0
    3.7051   -0.3248    2.3516 H   0  0  0  0  0  0  0  0  0  0  0  0
   -0.3168    0.1968   -2.4259 H   0  0  0  0  0  0  0  0  0  0  0  0
   -2.8363    0.7512   -1.9199 H   0  0  0  0  0  0  0  0  0  0  0  0
   -3.3949    1.7106    1.8405 H   0  0  0  0  0  0  0  0  0  0  0  0
   -7.7558   -0.4004    1.0248 H   0  0  0  0  0  0  0  0  0  0  0  0
  1  2  1  0
  2  3  2  0
  2  4  2  0
  2  5  1  0
  5  6  2  0
  6  7  1  0
  7  8  2  0
  8  9  1  0
  9 10  2  0
  8 11  1  0
 11 12  2  0
 12 13  1  0
 13 14  2  0
 14 15  1  0
 14 16  1  0
 16 17  2  0
 17 18  1  0
 18 19  1  0
 19 20  2  0
 19 21  1  0
 21 22  1  0
 22 23  2  0
 10  5  1  0
 15 11  1  0
 22 17  1  0
  1 24  1  0
  1 25  1  0
  6 26  1  0
  7 27  1  0
  9 28  1  0
 10 29  1  0
 12 30  1  0
 13 31  1  0
 16 32  1  0
 21 33  1  0
M  END
$$$$
