@<TRIPOS>MOLECULE
*****
 33 35 0 0 0
SMALL
GASTEIGER

@<TRIPOS>ATOM
      1 N           6.6912    0.5456    0.1191 N.3     1  UNL1       -0.2035
      2 S           5.7431   -0.8715    0.3324 S.O2    1  UNL1        0.0559
      3 O           6.0451   -1.8203   -0.7801 O.2     1  UNL1       -0.1533
      4 O           6.0769   -1.5449    1.6356 O.2     1  UNL1       -0.1533
      5 C           4.0219   -0.5101    0.3150 C.ar    1  UNL1        0.1050
      6 C           3.4412   -0.4632   -0.9377 C.ar    1  UNL1       -0.0347
      7 C           2.1172   -0.2035   -1.2019 C.ar    1  UNL1       -0.0492
      8 C           1.3033    0.0307   -0.0880 C.ar    1  UNL1        0.0174
      9 C           1.8624   -0.0115    1.1647 C.ar    1  UNL1       -0.0492
     10 C           3.1904   -0.2733    1.4094 C.ar    1  UNL1       -0.0347
     11 C          -0.1161    0.3107   -0.2545 C.ar    1  UNL1        0.1357
     12 C          -0.7728    0.3580   -1.4801 C.ar    1  UNL1       -0.0153
     13 C          -2.0732    0.6468   -1.1710 C.ar    1  UNL1       -0.0158
     14 C          -2.1646    0.7628    0.1909 C.ar    1  UNL1        0.1298
     15 O          -0.9658    0.5545    0.7162 O.2     1  UNL1       -0.4554
     16 C          -3.3763    1.0662    0.9631 C.2     1  UNL1       -0.0004
     17 C          -4.4965    0.5299    0.5699 C.2     1  UNL1        0.0824
     18 S          -4.7325   -0.5722   -0.8528 S.3     1  UNL1       -0.0259
     19 C          -6.2384   -1.3390   -0.1913 C.2     1  UNL1        0.2832
     20 O          -6.6285   -2.4835   -0.5255 O.2     1  UNL1       -0.2622
     21 N          -6.7628   -0.3657    0.7042 N.am    1  UNL1       -0.2425
     22 C          -5.8637    0.6332    1.1220 C.2     1  UNL1        0.2578
     23 O          -6.1361    1.5856    1.9145 O.2     1  UNL1       -0.2692
     24 H           7.1801    0.8721    0.9590 H       1  UNL1        0.1442
     25 H           6.2378    1.2825   -0.4572 H       1  UNL1        0.1442
     26 H           4.0269   -0.6379   -1.8526 H       1  UNL1        0.0637
     27 H           1.7001   -0.1742   -2.1908 H       1  UNL1        0.0625
     28 H           1.2884    0.1588    2.0780 H       1  UNL1        0.0625
     29 H           3.7051   -0.3248    2.3516 H       1  UNL1        0.0637
     30 H          -0.3168    0.1968   -2.4259 H       1  UNL1        0.0656
     31 H          -2.8363    0.7512   -1.9199 H       1  UNL1        0.0655
     32 H          -3.3949    1.7106    1.8405 H       1  UNL1        0.0667
     33 H          -7.7558   -0.4004    1.0248 H       1  UNL1        0.1587
@<TRIPOS>BOND
     1     1     2    1
     2     2     3    2
     3     2     4    2
     4     2     5    1
     5     5     6   ar
     6     6     7   ar
     7     7     8   ar
     8     8     9   ar
     9     9    10   ar
    10     8    11    1
    11    11    12   ar
    12    12    13   ar
    13    13    14   ar
    14    14    15   ar
    15    14    16    1
    16    16    17    2
    17    17    18    1
    18    18    19    1
    19    19    20    2
    20    19    21   am
    21    21    22   am
    22    22    23    2
    23    10     5   ar
    24    15    11   ar
    25    22    17    1
    26     1    24    1
    27     1    25    1
    28     6    26    1
    29     7    27    1
    30     9    28    1
    31    10    29    1
    32    12    30    1
    33    13    31    1
    34    16    32    1
    35    21    33    1
