@<TRIPOS>MOLECULE
*****
 50 53 0 0 0
SMALL
GASTEIGER

@<TRIPOS>ATOM
      1 C          -2.6662    1.3040   -1.5042 C.3     1  UNL1       -0.0082
      2 C          -1.7054    1.1521   -0.3823 C.3     1  UNL1        0.2272
      3 C          -0.3340    1.5584   -0.7200 C.ar    1  UNL1        0.0450
      4 C           0.7186    0.7168   -0.4968 C.ar    1  UNL1       -0.0300
      5 C           2.0569    1.0567   -0.7593 C.ar    1  UNL1        0.0343
      6 N           3.0656    0.0926   -0.4843 N.am    1  UNL1       -0.2802
      7 C           4.4508    0.2621   -0.6848 C.2     1  UNL1        0.2666
      8 O           4.9142    1.3280   -1.1424 O.2     1  UNL1       -0.2682
      9 C           5.3828   -0.8524   -0.3442 C.ar    1  UNL1        0.1257
     10 C           6.7262   -0.6778   -0.5425 C.ar    1  UNL1       -0.0298
     11 C           7.6576   -1.6723   -0.2482 C.ar    1  UNL1       -0.0397
     12 C           7.1748   -2.8606    0.2587 C.ar    1  UNL1        0.0591
     13 CL          8.2844   -4.1732    0.6587 Cl      1  UNL1       -0.0820
     14 C           5.8158   -3.0017    0.4456 C.ar    1  UNL1        0.0467
     15 N           4.9322   -2.0141    0.1494 N.ar    1  UNL1       -0.2489
     16 C           2.2903    2.3024   -1.2649 C.ar    1  UNL1       -0.0377
     17 C           1.2464    3.1954   -1.5097 C.ar    1  UNL1       -0.0243
     18 C          -0.0562    2.7946   -1.2278 C.ar    1  UNL1        0.1312
     19 F          -1.0111    3.6731   -1.5198 F       1  UNL1       -0.2050
     20 N          -1.6161   -0.2306    0.0694 N.2     1  UNL1       -0.0696
     21 C          -2.5363   -0.8561    0.6234 C.2     1  UNL1        0.3075
     22 N          -2.3111   -2.2250    1.0198 N.pl3   1  UNL1       -0.2488
     23 C          -3.8476   -0.2914    0.9130 C.3     1  UNL1        0.1918
     24 C          -4.6491   -1.0521    1.9715 C.3     1  UNL1       -0.0163
     25 C          -5.5703   -1.5591    0.8996 C.3     1  UNL1       -0.0479
     26 C          -4.8986   -0.6435   -0.0987 C.3     1  UNL1       -0.0163
     27 S          -3.7894    1.4396    1.2672 S.O2    1  UNL1        0.0220
     28 O          -4.9041    2.2171    0.6578 O.2     1  UNL1       -0.1703
     29 O          -3.9026    1.6251    2.7687 O.2     1  UNL1       -0.1703
     30 C          -2.1788    2.0094    0.7895 C.3     1  UNL1        0.2674
     31 F          -2.1508    3.3241    0.5254 F       1  UNL1       -0.2156
     32 H          -3.6325    1.7029   -1.2072 H       1  UNL1        0.0280
     33 H          -2.8531    0.2705   -1.9220 H       1  UNL1        0.0280
     34 H          -2.2272    1.8438   -2.3872 H       1  UNL1        0.0280
     35 H           0.5310   -0.2681   -0.0966 H       1  UNL1        0.0641
     36 H           2.7707   -0.8644   -0.0852 H       1  UNL1        0.1552
     37 H           7.0605    0.2658   -0.9402 H       1  UNL1        0.0641
     38 H           8.7175   -1.5422   -0.4018 H       1  UNL1        0.0633
     39 H           5.4856   -3.9613    0.8491 H       1  UNL1        0.0844
     40 H           3.3089    2.6400   -1.4947 H       1  UNL1        0.0637
     41 H           1.4957    4.1648   -1.9097 H       1  UNL1        0.0647
     42 H          -1.6346   -2.5197    1.7270 H       1  UNL1        0.2881
     43 H          -2.8880   -2.9397    0.5390 H       1  UNL1        0.2881
     44 H          -5.1004   -0.3771    2.7160 H       1  UNL1        0.0292
     45 H          -4.0300   -1.8221    2.4749 H       1  UNL1        0.0292
     46 H          -6.6211   -1.2714    1.0974 H       1  UNL1        0.0267
     47 H          -5.4092   -2.6436    0.7182 H       1  UNL1        0.0267
     48 H          -5.5249    0.2421   -0.3891 H       1  UNL1        0.0292
     49 H          -4.5489   -1.1611   -1.0149 H       1  UNL1        0.0292
     50 H          -1.4887    1.7246    1.6390 H       1  UNL1        0.0951
@<TRIPOS>BOND
     1     2     1    1
     2     2     3    1
     3     3     4   ar
     4     4     5   ar
     5     5     6    1
     6     6     7   am
     7     7     8    2
     8     7     9    1
     9     9    10   ar
    10    10    11   ar
    11    11    12   ar
    12    12    13    1
    13    12    14   ar
    14    14    15   ar
    15     5    16   ar
    16    16    17   ar
    17    17    18   ar
    18    18    19    1
    19     2    20    1
    20    20    21    2
    21    21    22    1
    22    21    23    1
    23    23    24    1
    24    24    25    1
    25    25    26    1
    26    23    27    1
    27    27    28    2
    28    27    29    2
    29    27    30    1
    30    30    31    1
    31    30     2    1
    32    18     3   ar
    33    26    23    1
    34    15     9   ar
    35     1    32    1
    36     1    33    1
    37     1    34    1
    38     4    35    1
    39     6    36    1
    40    10    37    1
    41    11    38    1
    42    14    39    1
    43    16    40    1
    44    17    41    1
    45    22    42    1
    46    22    43    1
    47    24    44    1
    48    24    45    1
    49    25    46    1
    50    25    47    1
    51    26    48    1
    52    26    49    1
    53    30    50    1
