@<TRIPOS>MOLECULE
*****
 30 32 0 0 0
SMALL
GASTEIGER

@<TRIPOS>ATOM
      1 N          -3.4720    2.5145    0.7351 N.am    1  UNL1       -0.3253
      2 C          -2.3472    1.6759    0.4918 C.2     1  UNL1        0.2437
      3 O          -1.2162    2.2408    0.5597 O.2     1  UNL1       -0.2703
      4 C          -2.5324    0.2607    0.1871 C.ar    1  UNL1        0.0639
      5 C          -3.8249   -0.2588    0.1372 C.ar    1  UNL1       -0.0475
      6 C          -3.9157   -1.6043   -0.1568 C.ar    1  UNL1       -0.0589
      7 C          -2.8575   -2.4556   -0.3993 C.ar    1  UNL1       -0.0342
      8 C          -1.6148   -1.8633   -0.3308 C.ar    1  UNL1        0.0899
      9 N          -0.5201   -2.6200   -0.5542 N.ar    1  UNL1       -0.2513
     10 C           0.6936   -2.0297   -0.4847 C.ar    1  UNL1        0.0542
     11 C           0.9059   -0.7017   -0.2007 C.ar    1  UNL1        0.0898
     12 N          -0.2024    0.0401    0.0201 N.ar    1  UNL1       -0.2429
     13 C          -1.4219   -0.5269   -0.0440 C.ar    1  UNL1        0.1019
     14 C           2.2391   -0.1156   -0.1382 C.ar    1  UNL1        0.0019
     15 C           3.4308   -0.7795   -0.3459 C.ar    1  UNL1       -0.0511
     16 C           4.6477   -0.1389   -0.2654 C.ar    1  UNL1       -0.0428
     17 C           4.7275    1.2019    0.0280 C.ar    1  UNL1        0.0410
     18 CL          6.2890    1.9795    0.1214 Cl      1  UNL1       -0.0835
     19 C           3.5632    1.9077    0.2436 C.ar    1  UNL1       -0.0428
     20 C           2.3501    1.2290    0.1545 C.ar    1  UNL1       -0.0511
     21 H          -3.8467    3.1083   -0.0397 H       1  UNL1        0.1453
     22 H          -3.9683    2.5792    1.6731 H       1  UNL1        0.1453
     23 H          -4.6937    0.3465    0.3156 H       1  UNL1        0.0626
     24 H          -4.9215   -2.0125   -0.1964 H       1  UNL1        0.0618
     25 H          -3.0235   -3.5002   -0.6227 H       1  UNL1        0.0639
     26 H           1.5195   -2.6953   -0.6742 H       1  UNL1        0.0851
     27 H           3.3634   -1.8339   -0.5763 H       1  UNL1        0.0625
     28 H           5.5300   -0.7543   -0.4467 H       1  UNL1        0.0632
     29 H           3.6229    2.9607    0.4741 H       1  UNL1        0.0632
     30 H           1.4961    1.8456    0.3346 H       1  UNL1        0.0625
@<TRIPOS>BOND
     1     1     2   am
     2     2     3    2
     3     2     4    1
     4     4     5   ar
     5     5     6   ar
     6     6     7   ar
     7     7     8   ar
     8     8     9   ar
     9     9    10   ar
    10    10    11   ar
    11    11    12   ar
    12    12    13   ar
    13    11    14    1
    14    14    15   ar
    15    15    16   ar
    16    16    17   ar
    17    17    18    1
    18    17    19   ar
    19    19    20   ar
    20    13     4   ar
    21    20    14   ar
    22    13     8   ar
    23     1    21    1
    24     1    22    1
    25     5    23    1
    26     6    24    1
    27     7    25    1
    28    10    26    1
    29    15    27    1
    30    16    28    1
    31    19    29    1
    32    20    30    1
