@<TRIPOS>MOLECULE
*****
 63 66 0 0 0
SMALL
GASTEIGER

@<TRIPOS>ATOM
      1 C           0.6273   -0.0043    3.4571 C.3     1  UNL1       -0.0421
      2 C           0.4623    0.6796    2.1169 C.3     1  UNL1        0.0515
      3 C           1.6359    0.3618    1.3026 C.ar    1  UNL1       -0.0271
      4 C           2.6353    1.3352    1.1988 C.ar    1  UNL1       -0.0562
      5 C           3.7898    1.1543    0.4745 C.ar    1  UNL1       -0.0537
      6 C           3.9907   -0.0570   -0.1981 C.ar    1  UNL1       -0.0165
      7 C           5.1988   -0.2533   -0.9592 C.ar    1  UNL1       -0.0015
      8 C           5.1842   -1.0497   -2.0785 C.ar    1  UNL1       -0.0475
      9 C           6.3431   -1.2537   -2.8285 C.ar    1  UNL1        0.0036
     10 C           7.4991   -0.6460   -2.4309 C.ar    1  UNL1        0.2511
     11 O           8.5727   -0.7885   -3.0585 O.2     1  UNL1       -0.2677
     12 N           7.5221    0.1397   -1.3309 N.ar    1  UNL1       -0.3177
     13 C           8.7466    0.7763   -0.9204 C.3     1  UNL1        0.0147
     14 C           6.3833    0.3360   -0.5988 C.ar    1  UNL1        0.0153
     15 C           3.0012   -1.0020   -0.0869 C.ar    1  UNL1       -0.0537
     16 C           1.8315   -0.8080    0.6519 C.ar    1  UNL1       -0.0562
     17 N          -0.8105    0.4110    1.5177 N.am    1  UNL1       -0.2605
     18 C          -1.3293   -0.8681    1.1323 C.3     1  UNL1        0.0224
     19 C          -2.8114   -0.8918    1.4507 C.3     1  UNL1        0.0075
     20 C          -3.5793    0.1663    0.6060 C.3     1  UNL1        0.1415
     21 C          -4.7289    0.5691    1.4373 C.3     1  UNL1       -0.0064
     22 C          -5.6640    1.6007    1.0080 C.3     1  UNL1       -0.0258
     23 C          -6.4255    1.5195   -0.2345 C.3     1  UNL1        0.0443
     24 O          -5.6478    1.5057   -1.3841 O.3     1  UNL1       -0.3950
     25 C          -3.8901   -0.5787   -0.6280 C.ar    1  UNL1       -0.0040
     26 C          -3.0910   -0.4226   -1.7398 C.ar    1  UNL1       -0.0521
     27 C          -3.3207   -1.1209   -2.9050 C.ar    1  UNL1       -0.0261
     28 C          -4.3787   -1.9971   -2.9549 C.ar    1  UNL1        0.1234
     29 F          -4.6700   -2.7150   -4.0523 F       1  UNL1       -0.2055
     30 C          -5.1936   -2.1621   -1.8341 C.ar    1  UNL1       -0.0261
     31 C          -4.9441   -1.4537   -0.6819 C.ar    1  UNL1       -0.0521
     32 O          -2.7443    1.2881    0.4049 O.3     1  UNL1       -0.4388
     33 C          -1.7073    1.5268    1.2932 C.2     1  UNL1        0.4042
     34 O          -1.5186    2.6262    1.8870 O.2     1  UNL1       -0.2262
     35 H           0.2920   -1.0571    3.4466 H       1  UNL1        0.0251
     36 H           0.0931    0.4920    4.2721 H       1  UNL1        0.0251
     37 H           1.7038   -0.0253    3.7573 H       1  UNL1        0.0251
     38 H           0.4668    1.7986    2.3538 H       1  UNL1        0.0549
     39 H           2.5252    2.2921    1.7034 H       1  UNL1        0.0621
     40 H           4.5632    1.9078    0.3952 H       1  UNL1        0.0624
     41 H           4.2690   -1.5174   -2.3729 H       1  UNL1        0.0626
     42 H           6.3320   -1.8758   -3.7039 H       1  UNL1        0.0672
     43 H           9.2197    0.3099   -0.0326 H       1  UNL1        0.0457
     44 H           9.4553    0.7486   -1.7699 H       1  UNL1        0.0457
     45 H           8.5642    1.8416   -0.6459 H       1  UNL1        0.0457
     46 H           6.3866    0.9617    0.2838 H       1  UNL1        0.0816
     47 H           3.1726   -1.9373   -0.6146 H       1  UNL1        0.0624
     48 H           1.1207   -1.6380    0.6676 H       1  UNL1        0.0621
     49 H          -1.1095   -1.0524    0.0860 H       1  UNL1        0.0467
     50 H          -0.9027   -1.7081    1.7288 H       1  UNL1        0.0467
     51 H          -3.2244   -1.8928    1.2895 H       1  UNL1        0.0322
     52 H          -2.9129   -0.6602    2.5297 H       1  UNL1        0.0322
     53 H          -5.2623   -0.3671    1.8200 H       1  UNL1        0.0308
     54 H          -4.2743    0.9484    2.4161 H       1  UNL1        0.0308
     55 H          -5.1826    2.6380    1.0413 H       1  UNL1        0.0289
     56 H          -6.4286    1.7113    1.8527 H       1  UNL1        0.0289
     57 H          -7.1050    2.4160   -0.3697 H       1  UNL1        0.0557
     58 H          -7.1161    0.6585   -0.3272 H       1  UNL1        0.0557
     59 H          -5.0557    2.2699   -1.4878 H       1  UNL1        0.2094
     60 H          -2.2562    0.2575   -1.7267 H       1  UNL1        0.0622
     61 H          -2.7043   -1.0032   -3.7710 H       1  UNL1        0.0646
     62 H          -6.0347   -2.8697   -1.8967 H       1  UNL1        0.0646
     63 H          -5.5634   -1.5713    0.1851 H       1  UNL1        0.0622
@<TRIPOS>BOND
     1     1     2    1
     2     2     3    1
     3     3     4   ar
     4     4     5   ar
     5     5     6   ar
     6     6     7    1
     7     7     8   ar
     8     8     9   ar
     9     9    10   ar
    10    10    11    2
    11    10    12   ar
    12    12    13    1
    13    12    14   ar
    14     6    15   ar
    15    15    16   ar
    16     2    17    1
    17    17    18    1
    18    18    19    1
    19    19    20    1
    20    20    21    1
    21    21    22    1
    22    22    23    1
    23    23    24    1
    24    20    25    1
    25    25    26   ar
    26    26    27   ar
    27    27    28   ar
    28    28    29    1
    29    28    30   ar
    30    30    31   ar
    31    20    32    1
    32    32    33    1
    33    33    34    2
    34    16     3   ar
    35    33    17   am
    36    14     7   ar
    37    31    25   ar
    38     1    35    1
    39     1    36    1
    40     1    37    1
    41     2    38    1
    42     4    39    1
    43     5    40    1
    44     8    41    1
    45     9    42    1
    46    13    43    1
    47    13    44    1
    48    13    45    1
    49    14    46    1
    50    15    47    1
    51    16    48    1
    52    18    49    1
    53    18    50    1
    54    19    51    1
    55    19    52    1
    56    21    53    1
    57    21    54    1
    58    22    55    1
    59    22    56    1
    60    23    57    1
    61    23    58    1
    62    24    59    1
    63    26    60    1
    64    27    61    1
    65    30    62    1
    66    31    63    1
