
     RDKit          3D

 63 66  0  0  0  0  0  0  0  0999 V2000
    0.6273   -0.0043    3.4571 C   0  0  0  0  0  0  0  0  0  0  0  0
    0.4623    0.6796    2.1169 C   0  0  1  0  0  0  0  0  0  0  0  0
    1.6359    0.3618    1.3026 C   0  0  0  0  0  0  0  0  0  0  0  0
    2.6353    1.3352    1.1988 C   0  0  0  0  0  0  0  0  0  0  0  0
    3.7898    1.1543    0.4745 C   0  0  0  0  0  0  0  0  0  0  0  0
    3.9907   -0.0570   -0.1981 C   0  0  0  0  0  0  0  0  0  0  0  0
    5.1988   -0.2533   -0.9592 C   0  0  0  0  0  0  0  0  0  0  0  0
    5.1842   -1.0497   -2.0785 C   0  0  0  0  0  0  0  0  0  0  0  0
    6.3431   -1.2537   -2.8285 C   0  0  0  0  0  0  0  0  0  0  0  0
    7.4991   -0.6460   -2.4309 C   0  0  0  0  0  0  0  0  0  0  0  0
    8.5727   -0.7885   -3.0585 O   0  0  0  0  0  0  0  0  0  0  0  0
    7.5221    0.1397   -1.3309 N   0  0  0  0  0  0  0  0  0  0  0  0
    8.7466    0.7763   -0.9204 C   0  0  0  0  0  0  0  0  0  0  0  0
    6.3833    0.3360   -0.5988 C   0  0  0  0  0  0  0  0  0  0  0  0
    3.0012   -1.0020   -0.0869 C   0  0  0  0  0  0  0  0  0  0  0  0
    1.8315   -0.8080    0.6519 C   0  0  0  0  0  0  0  0  0  0  0  0
   -0.8105    0.4110    1.5177 N   0  0  0  0  0  0  0  0  0  0  0  0
   -1.3293   -0.8681    1.1323 C   0  0  0  0  0  0  0  0  0  0  0  0
   -2.8114   -0.8918    1.4507 C   0  0  0  0  0  0  0  0  0  0  0  0
   -3.5793    0.1663    0.6060 C   0  0  2  0  0  0  0  0  0  0  0  0
   -4.7289    0.5691    1.4373 C   0  0  0  0  0  0  0  0  0  0  0  0
   -5.6640    1.6007    1.0080 C   0  0  0  0  0  0  0  0  0  0  0  0
   -6.4255    1.5195   -0.2345 C   0  0  0  0  0  0  0  0  0  0  0  0
   -5.6478    1.5057   -1.3841 O   0  0  0  0  0  0  0  0  0  0  0  0
   -3.8901   -0.5787   -0.6280 C   0  0  0  0  0  0  0  0  0  0  0  0
   -3.0910   -0.4226   -1.7398 C   0  0  0  0  0  0  0  0  0  0  0  0
   -3.3207   -1.1209   -2.9050 C   0  0  0  0  0  0  0  0  0  0  0  0
   -4.3787   -1.9971   -2.9549 C   0  0  0  0  0  0  0  0  0  0  0  0
   -4.6700   -2.7150   -4.0523 F   0  0  0  0  0  0  0  0  0  0  0  0
   -5.1936   -2.1621   -1.8341 C   0  0  0  0  0  0  0  0  0  0  0  0
   -4.9441   -1.4537   -0.6819 C   0  0  0  0  0  0  0  0  0  0  0  0
   -2.7443    1.2881    0.4049 O   0  0  0  0  0  0  0  0  0  0  0  0
   -1.7073    1.5268    1.2932 C   0  0  0  0  0  0  0  0  0  0  0  0
   -1.5186    2.6262    1.8870 O   0  0  0  0  0  0  0  0  0  0  0  0
    0.2920   -1.0571    3.4466 H   0  0  0  0  0  0  0  0  0  0  0  0
    0.0931    0.4920    4.2721 H   0  0  0  0  0  0  0  0  0  0  0  0
    1.7038   -0.0253    3.7573 H   0  0  0  0  0  0  0  0  0  0  0  0
    0.4668    1.7986    2.3538 H   0  0  0  0  0  0  0  0  0  0  0  0
    2.5252    2.2921    1.7034 H   0  0  0  0  0  0  0  0  0  0  0  0
    4.5632    1.9078    0.3952 H   0  0  0  0  0  0  0  0  0  0  0  0
    4.2690   -1.5174   -2.3729 H   0  0  0  0  0  0  0  0  0  0  0  0
    6.3320   -1.8758   -3.7039 H   0  0  0  0  0  0  0  0  0  0  0  0
    9.2197    0.3099   -0.0326 H   0  0  0  0  0  0  0  0  0  0  0  0
    9.4553    0.7486   -1.7699 H   0  0  0  0  0  0  0  0  0  0  0  0
    8.5642    1.8416   -0.6459 H   0  0  0  0  0  0  0  0  0  0  0  0
    6.3866    0.9617    0.2838 H   0  0  0  0  0  0  0  0  0  0  0  0
    3.1726   -1.9373   -0.6146 H   0  0  0  0  0  0  0  0  0  0  0  0
    1.1207   -1.6380    0.6676 H   0  0  0  0  0  0  0  0  0  0  0  0
   -1.1095   -1.0524    0.0860 H   0  0  0  0  0  0  0  0  0  0  0  0
   -0.9027   -1.7081    1.7288 H   0  0  0  0  0  0  0  0  0  0  0  0
   -3.2244   -1.8928    1.2895 H   0  0  0  0  0  0  0  0  0  0  0  0
   -2.9129   -0.6602    2.5297 H   0  0  0  0  0  0  0  0  0  0  0  0
   -5.2623   -0.3671    1.8200 H   0  0  0  0  0  0  0  0  0  0  0  0
   -4.2743    0.9484    2.4161 H   0  0  0  0  0  0  0  0  0  0  0  0
   -5.1826    2.6380    1.0413 H   0  0  0  0  0  0  0  0  0  0  0  0
   -6.4286    1.7113    1.8527 H   0  0  0  0  0  0  0  0  0  0  0  0
   -7.1050    2.4160   -0.3697 H   0  0  0  0  0  0  0  0  0  0  0  0
   -7.1161    0.6585   -0.3272 H   0  0  0  0  0  0  0  0  0  0  0  0
   -5.0557    2.2699   -1.4878 H   0  0  0  0  0  0  0  0  0  0  0  0
   -2.2562    0.2575   -1.7267 H   0  0  0  0  0  0  0  0  0  0  0  0
   -2.7043   -1.0032   -3.7710 H   0  0  0  0  0  0  0  0  0  0  0  0
   -6.0347   -2.8697   -1.8967 H   0  0  0  0  0  0  0  0  0  0  0  0
   -5.5634   -1.5713    0.1851 H   0  0  0  0  0  0  0  0  0  0  0  0
  1  2  1  0
  2  3  1  0
  3  4  2  0
  4  5  1  0
  5  6  2  0
  6  7  1  0
  7  8  1  0
  8  9  2  0
  9 10  1  0
 10 11  2  0
 10 12  1  0
 12 13  1  0
 12 14  1  0
  6 15  1  0
 15 16  2  0
  2 17  1  0
 17 18  1  0
 18 19  1  0
 19 20  1  0
 20 21  1  1
 21 22  1  0
 22 23  1  0
 23 24  1  0
 20 25  1  0
 25 26  2  0
 26 27  1  0
 27 28  2  0
 28 29  1  0
 28 30  1  0
 30 31  2  0
 20 32  1  0
 32 33  1  0
 33 34  2  0
 16  3  1  0
 33 17  1  0
 14  7  2  0
 31 25  1  0
  1 35  1  0
  1 36  1  0
  1 37  1  0
  2 38  1  1
  4 39  1  0
  5 40  1  0
  8 41  1  0
  9 42  1  0
 13 43  1  0
 13 44  1  0
 13 45  1  0
 14 46  1  0
 15 47  1  0
 16 48  1  0
 18 49  1  0
 18 50  1  0
 19 51  1  0
 19 52  1  0
 21 53  1  0
 21 54  1  0
 22 55  1  0
 22 56  1  0
 23 57  1  0
 23 58  1  0
 24 59  1  0
 26 60  1  0
 27 61  1  0
 30 62  1  0
 31 63  1  0
M  END
$$$$
