
     RDKit          3D

 57 62  0  0  0  0  0  0  0  0999 V2000
   -9.1030    0.8320   -1.5375 N   0  0  0  0  0  0  0  0  0  0  0  0
   -8.6183   -0.4919   -1.3735 C   0  0  0  0  0  0  0  0  0  0  0  0
   -9.3272   -1.4199   -1.8360 O   0  0  0  0  0  0  0  0  0  0  0  0
   -7.3593   -0.7811   -0.7029 C   0  0  0  0  0  0  0  0  0  0  0  0
   -6.9522   -2.0916   -0.5804 C   0  0  0  0  0  0  0  0  0  0  0  0
   -5.7487   -2.3998    0.0577 C   0  0  0  0  0  0  0  0  0  0  0  0
   -4.9507   -1.3976    0.5744 C   0  0  0  0  0  0  0  0  0  0  0  0
   -5.3419   -0.1017    0.4597 C   0  0  0  0  0  0  0  0  0  0  0  0
   -4.5358    0.8863    0.9789 C   0  0  0  0  0  0  0  0  0  0  0  0
   -3.2730    0.6408    1.6559 C   0  0  0  0  0  0  0  0  0  0  0  0
   -3.0727    0.4342    3.0055 C   0  0  0  0  0  0  0  0  0  0  0  0
   -1.7579    0.2451    3.2311 N   0  0  0  0  0  0  0  0  0  0  0  0
   -1.1086    0.3205    2.0939 N   0  0  0  0  0  0  0  0  0  0  0  0
    0.2112    0.1984    1.8138 C   0  0  0  0  0  0  0  0  0  0  0  0
    0.6241    0.3221    0.5244 C   0  0  0  0  0  0  0  0  0  0  0  0
    2.0559    0.1847    0.2600 C   0  0  0  0  0  0  0  0  0  0  0  0
    2.9704    0.5827    1.1922 C   0  0  0  0  0  0  0  0  0  0  0  0
    4.3241    0.4408    0.9198 C   0  0  0  0  0  0  0  0  0  0  0  0
    4.7803   -0.0905   -0.2641 C   0  0  0  0  0  0  0  0  0  0  0  0
    6.1309   -0.2613   -0.5982 N   0  0  0  0  0  0  0  0  0  0  0  0
    6.5085   -0.8293   -1.8759 C   0  0  0  0  0  0  0  0  0  0  0  0
    8.0100   -0.6859   -2.0078 C   0  0  0  0  0  0  0  0  0  0  0  0
    8.7466   -1.2603   -0.9251 N   0  0  0  0  0  0  0  0  0  0  0  0
    8.1201   -1.1108    0.3643 C   0  0  0  0  0  0  0  0  0  0  0  0
    7.1888    0.1120    0.2943 C   0  0  0  0  0  0  0  0  0  0  0  0
    3.7955   -0.4750   -1.1686 C   0  0  0  0  0  0  0  0  0  0  0  0
    2.4585   -0.3481   -0.9298 C   0  0  0  0  0  0  0  0  0  0  0  0
   -0.2806    0.5665   -0.4771 C   0  0  0  0  0  0  0  0  0  0  0  0
   -1.5781    0.6829   -0.1743 N   0  0  0  0  0  0  0  0  0  0  0  0
   -1.9968    0.5632    1.0908 C   0  0  0  0  0  0  0  0  0  0  0  0
   -4.9679    2.1878    0.8415 C   0  0  0  0  0  0  0  0  0  0  0  0
   -6.1714    2.4723    0.2015 C   0  0  0  0  0  0  0  0  0  0  0  0
   -6.9350    1.4855   -0.2944 N   0  0  0  0  0  0  0  0  0  0  0  0
   -6.5472    0.2005   -0.1800 C   0  0  0  0  0  0  0  0  0  0  0  0
   -8.6226    1.4624   -2.2108 H   0  0  0  0  0  0  0  0  0  0  0  0
   -9.9196    1.2132   -1.0180 H   0  0  0  0  0  0  0  0  0  0  0  0
   -7.5771   -2.8812   -0.9856 H   0  0  0  0  0  0  0  0  0  0  0  0
   -5.4394   -3.4439    0.1468 H   0  0  0  0  0  0  0  0  0  0  0  0
   -4.0250   -1.6659    1.0627 H   0  0  0  0  0  0  0  0  0  0  0  0
   -3.8661    0.4298    3.7455 H   0  0  0  0  0  0  0  0  0  0  0  0
    0.8942    0.0037    2.6437 H   0  0  0  0  0  0  0  0  0  0  0  0
    2.6519    1.0051    2.1350 H   0  0  0  0  0  0  0  0  0  0  0  0
    5.0037    0.7716    1.6886 H   0  0  0  0  0  0  0  0  0  0  0  0
    6.2771   -1.9110   -1.9536 H   0  0  0  0  0  0  0  0  0  0  0  0
    6.0522   -0.2800   -2.7257 H   0  0  0  0  0  0  0  0  0  0  0  0
    8.2792   -1.2387   -2.9539 H   0  0  0  0  0  0  0  0  0  0  0  0
    8.2235    0.3951   -2.1745 H   0  0  0  0  0  0  0  0  0  0  0  0
    9.6982   -0.8603   -0.8892 H   0  0  0  0  0  0  0  0  0  0  0  0
    8.8503   -0.9404    1.1831 H   0  0  0  0  0  0  0  0  0  0  0  0
    7.5060   -1.9968    0.5923 H   0  0  0  0  0  0  0  0  0  0  0  0
    7.8046    0.8857   -0.2365 H   0  0  0  0  0  0  0  0  0  0  0  0
    6.9014    0.4210    1.2939 H   0  0  0  0  0  0  0  0  0  0  0  0
    4.1027   -0.8949   -2.1068 H   0  0  0  0  0  0  0  0  0  0  0  0
    1.7321   -0.6635   -1.6681 H   0  0  0  0  0  0  0  0  0  0  0  0
    0.0790    0.6628   -1.5155 H   0  0  0  0  0  0  0  0  0  0  0  0
   -4.3902    2.9986    1.2218 H   0  0  0  0  0  0  0  0  0  0  0  0
   -6.5145    3.4881    0.0910 H   0  0  0  0  0  0  0  0  0  0  0  0
  1  2  1  0
  2  3  2  0
  2  4  1  0
  4  5  2  0
  5  6  1  0
  6  7  2  0
  7  8  1  0
  8  9  2  0
  9 10  1  0
 10 11  1  0
 11 12  2  0
 12 13  1  0
 13 14  1  0
 14 15  2  0
 15 16  1  0
 16 17  2  0
 17 18  1  0
 18 19  2  0
 19 20  1  0
 20 21  1  0
 21 22  1  0
 22 23  1  0
 23 24  1  0
 24 25  1  0
 19 26  1  0
 26 27  2  0
 15 28  1  0
 28 29  2  0
 29 30  1  0
  9 31  1  0
 31 32  2  0
 32 33  1  0
 33 34  2  0
 34  4  1  0
 34  8  1  0
 30 10  2  0
 30 13  1  0
 27 16  1  0
 25 20  1  0
  1 35  1  0
  1 36  1  0
  5 37  1  0
  6 38  1  0
  7 39  1  0
 11 40  1  0
 14 41  1  0
 17 42  1  0
 18 43  1  0
 21 44  1  0
 21 45  1  0
 22 46  1  0
 22 47  1  0
 23 48  1  0
 24 49  1  0
 24 50  1  0
 25 51  1  0
 25 52  1  0
 26 53  1  0
 27 54  1  0
 28 55  1  0
 31 56  1  0
 32 57  1  0
M  END
$$$$
