@<TRIPOS>MOLECULE
*****
 57 62 0 0 0
SMALL
GASTEIGER

@<TRIPOS>ATOM
      1 N          -9.1030    0.8320   -1.5375 N.am    1  UNL1       -0.3253
      2 C          -8.6183   -0.4919   -1.3735 C.2     1  UNL1        0.2436
      3 O          -9.3272   -1.4199   -1.8360 O.2     1  UNL1       -0.2703
      4 C          -7.3593   -0.7811   -0.7029 C.ar    1  UNL1        0.0624
      5 C          -6.9522   -2.0916   -0.5804 C.ar    1  UNL1       -0.0475
      6 C          -5.7487   -2.3998    0.0577 C.ar    1  UNL1       -0.0603
      7 C          -4.9507   -1.3976    0.5744 C.ar    1  UNL1       -0.0519
      8 C          -5.3419   -0.1017    0.4597 C.ar    1  UNL1        0.0090
      9 C          -4.5358    0.8863    0.9789 C.ar    1  UNL1       -0.0022
     10 C          -3.2730    0.6408    1.6559 C.ar    1  UNL1        0.0467
     11 C          -3.0727    0.4342    3.0055 C.ar    1  UNL1        0.0597
     12 N          -1.7579    0.2451    3.2311 N.ar    1  UNL1       -0.1727
     13 N          -1.1086    0.3205    2.0939 N.ar    1  UNL1       -0.2206
     14 C           0.2112    0.1984    1.8138 C.ar    1  UNL1        0.0406
     15 C           0.6241    0.3221    0.5244 C.ar    1  UNL1        0.0184
     16 C           2.0559    0.1847    0.2600 C.ar    1  UNL1       -0.0149
     17 C           2.9704    0.5827    1.1922 C.ar    1  UNL1       -0.0522
     18 C           4.3241    0.4408    0.9198 C.ar    1  UNL1       -0.0401
     19 C           4.7803   -0.0905   -0.2641 C.ar    1  UNL1        0.0298
     20 N           6.1309   -0.2613   -0.5982 N.pl3   1  UNL1       -0.3275
     21 C           6.5085   -0.8293   -1.8759 C.3     1  UNL1        0.0248
     22 C           8.0100   -0.6859   -2.0078 C.3     1  UNL1        0.0117
     23 N           8.7466   -1.2603   -0.9251 N.3     1  UNL1       -0.3130
     24 C           8.1201   -1.1108    0.3643 C.3     1  UNL1        0.0117
     25 C           7.1888    0.1120    0.2943 C.3     1  UNL1        0.0248
     26 C           3.7955   -0.4750   -1.1686 C.ar    1  UNL1       -0.0401
     27 C           2.4585   -0.3481   -0.9298 C.ar    1  UNL1       -0.0522
     28 C          -0.2806    0.5665   -0.4771 C.ar    1  UNL1        0.0391
     29 N          -1.5781    0.6829   -0.1743 N.ar    1  UNL1       -0.2350
     30 C          -1.9968    0.5632    1.0908 C.ar    1  UNL1        0.1632
     31 C          -4.9679    2.1878    0.8415 C.ar    1  UNL1       -0.0351
     32 C          -6.1714    2.4723    0.2015 C.ar    1  UNL1        0.0289
     33 N          -6.9350    1.4855   -0.2944 N.ar    1  UNL1       -0.2542
     34 C          -6.5472    0.2005   -0.1800 C.ar    1  UNL1        0.0836
     35 H          -8.6226    1.4624   -2.2108 H       1  UNL1        0.1453
     36 H          -9.9196    1.2132   -1.0180 H       1  UNL1        0.1453
     37 H          -7.5771   -2.8812   -0.9856 H       1  UNL1        0.0626
     38 H          -5.4394   -3.4439    0.1468 H       1  UNL1        0.0618
     39 H          -4.0250   -1.6659    1.0627 H       1  UNL1        0.0624
     40 H          -3.8661    0.4298    3.7455 H       1  UNL1        0.0855
     41 H           0.8942    0.0037    2.6437 H       1  UNL1        0.0837
     42 H           2.6519    1.0051    2.1350 H       1  UNL1        0.0624
     43 H           5.0037    0.7716    1.6886 H       1  UNL1        0.0636
     44 H           6.2771   -1.9110   -1.9536 H       1  UNL1        0.0476
     45 H           6.0522   -0.2800   -2.7257 H       1  UNL1        0.0476
     46 H           8.2792   -1.2387   -2.9539 H       1  UNL1        0.0439
     47 H           8.2235    0.3951   -2.1745 H       1  UNL1        0.0439
     48 H           9.6982   -0.8603   -0.8892 H       1  UNL1        0.1220
     49 H           8.8503   -0.9404    1.1831 H       1  UNL1        0.0439
     50 H           7.5060   -1.9968    0.5923 H       1  UNL1        0.0439
     51 H           7.8046    0.8857   -0.2365 H       1  UNL1        0.0476
     52 H           6.9014    0.4210    1.2939 H       1  UNL1        0.0476
     53 H           4.1027   -0.8949   -2.1068 H       1  UNL1        0.0636
     54 H           1.7321   -0.6635   -1.6681 H       1  UNL1        0.0624
     55 H           0.0790    0.6628   -1.5155 H       1  UNL1        0.0837
     56 H          -4.3902    2.9986    1.2218 H       1  UNL1        0.0639
     57 H          -6.5145    3.4881    0.0910 H       1  UNL1        0.0830
@<TRIPOS>BOND
     1     1     2   am
     2     2     3    2
     3     2     4    1
     4     4     5   ar
     5     5     6   ar
     6     6     7   ar
     7     7     8   ar
     8     8     9   ar
     9     9    10    1
    10    10    11   ar
    11    11    12   ar
    12    12    13   ar
    13    13    14   ar
    14    14    15   ar
    15    15    16    1
    16    16    17   ar
    17    17    18   ar
    18    18    19   ar
    19    19    20    1
    20    20    21    1
    21    21    22    1
    22    22    23    1
    23    23    24    1
    24    24    25    1
    25    19    26   ar
    26    26    27   ar
    27    15    28   ar
    28    28    29   ar
    29    29    30   ar
    30     9    31   ar
    31    31    32   ar
    32    32    33   ar
    33    33    34   ar
    34    34     4   ar
    35    34     8   ar
    36    30    10   ar
    37    30    13   ar
    38    27    16   ar
    39    25    20    1
    40     1    35    1
    41     1    36    1
    42     5    37    1
    43     6    38    1
    44     7    39    1
    45    11    40    1
    46    14    41    1
    47    17    42    1
    48    18    43    1
    49    21    44    1
    50    21    45    1
    51    22    46    1
    52    22    47    1
    53    23    48    1
    54    24    49    1
    55    24    50    1
    56    25    51    1
    57    25    52    1
    58    26    53    1
    59    27    54    1
    60    28    55    1
    61    31    56    1
    62    32    57    1
