@<TRIPOS>MOLECULE
*****
 52 55 0 0 0
SMALL
GASTEIGER

@<TRIPOS>ATOM
      1 N          -7.8236   -0.6628   -0.1382 N.3     1  UNL1       -0.3272
      2 C          -6.5494   -0.1501   -0.6615 C.3     1  UNL1        0.0049
      3 C          -6.2859    1.1399    0.0863 C.3     1  UNL1       -0.0363
      4 C          -4.9569    1.7531   -0.3368 C.3     1  UNL1       -0.0361
      5 C          -3.9105    0.6548   -0.5337 C.3     1  UNL1        0.0080
      6 N          -2.6348    1.1969   -0.2303 N.3     1  UNL1       -0.3099
      7 C          -1.5360    0.3001   -0.3636 C.3     1  UNL1        0.0153
      8 C          -1.1845   -0.3617   -1.6346 C.3     1  UNL1       -0.0287
      9 C          -0.3355    0.7737   -1.1528 C.3     1  UNL1        0.0010
     10 C           1.0306    0.4984   -0.6419 C.ar    1  UNL1       -0.0427
     11 C           2.0419    1.4165   -0.8510 C.ar    1  UNL1       -0.0577
     12 C           3.3215    1.1373   -0.3632 C.ar    1  UNL1       -0.0538
     13 C           3.5899   -0.0287    0.3174 C.ar    1  UNL1       -0.0179
     14 C           4.9415   -0.2697    0.8037 C.ar    1  UNL1       -0.0174
     15 C           5.1097   -1.0134    1.9700 C.ar    1  UNL1       -0.0540
     16 C           6.3870   -1.2648    2.4662 C.ar    1  UNL1       -0.0607
     17 C           7.4962   -0.7747    1.7995 C.ar    1  UNL1       -0.0501
     18 C           7.3559   -0.0303    0.6345 C.ar    1  UNL1        0.0554
     19 C           8.5504    0.4950   -0.0783 C.3     1  UNL1        0.4174
     20 F           8.9160   -0.3764   -1.1002 F       1  UNL1       -0.1659
     21 F           8.2173    1.6906   -0.6874 F       1  UNL1       -0.1659
     22 F           9.5921    0.7517    0.7798 F       1  UNL1       -0.1659
     23 C           6.0616    0.1925    0.1812 C.ar    1  UNL1       -0.0424
     24 C           2.5601   -0.9240    0.5095 C.ar    1  UNL1       -0.0538
     25 C           1.2790   -0.6758    0.0375 C.ar    1  UNL1       -0.0577
     26 C          -4.3367   -0.5049    0.3095 C.3     1  UNL1       -0.0361
     27 C          -5.4954   -1.1919   -0.3807 C.3     1  UNL1       -0.0363
     28 H          -7.6024   -1.2693    0.6828 H       1  UNL1        0.1185
     29 H          -8.2609   -1.2672   -0.8929 H       1  UNL1        0.1185
     30 H          -6.7186    0.0267   -1.7324 H       1  UNL1        0.0458
     31 H          -7.0737    1.8553   -0.2284 H       1  UNL1        0.0281
     32 H          -6.3585    1.0279    1.1665 H       1  UNL1        0.0281
     33 H          -5.0741    2.3428   -1.2556 H       1  UNL1        0.0281
     34 H          -4.6684    2.4514    0.4755 H       1  UNL1        0.0281
     35 H          -3.9262    0.3464   -1.5963 H       1  UNL1        0.0460
     36 H          -2.5771    1.8594    0.5453 H       1  UNL1        0.1225
     37 H          -1.2641   -0.2307    0.5822 H       1  UNL1        0.0466
     38 H          -0.7139   -1.3844   -1.5531 H       1  UNL1        0.0287
     39 H          -1.7323   -0.2218   -2.5689 H       1  UNL1        0.0287
     40 H          -0.4687    1.7397   -1.6963 H       1  UNL1        0.0364
     41 H           1.8518    2.3409   -1.3842 H       1  UNL1        0.0621
     42 H           4.1164    1.8500   -0.5227 H       1  UNL1        0.0624
     43 H           4.2493   -1.3943    2.4890 H       1  UNL1        0.0624
     44 H           6.4858   -1.8452    3.3747 H       1  UNL1        0.0618
     45 H           8.4849   -0.9906    2.2152 H       1  UNL1        0.0623
     46 H           5.9288    0.7687   -0.7234 H       1  UNL1        0.0629
     47 H           2.7345   -1.8434    1.0360 H       1  UNL1        0.0624
     48 H           0.4568   -1.3650    0.1776 H       1  UNL1        0.0621
     49 H          -3.5114   -1.2142    0.5173 H       1  UNL1        0.0281
     50 H          -4.7176   -0.1935    1.3176 H       1  UNL1        0.0281
     51 H          -5.1513   -1.5754   -1.3858 H       1  UNL1        0.0281
     52 H          -5.8903   -2.0379    0.2193 H       1  UNL1        0.0281
@<TRIPOS>BOND
     1     1     2    1
     2     2     3    1
     3     3     4    1
     4     4     5    1
     5     5     6    1
     6     6     7    1
     7     7     8    1
     8     8     9    1
     9     9    10    1
    10    10    11   ar
    11    11    12   ar
    12    12    13   ar
    13    13    14    1
    14    14    15   ar
    15    15    16   ar
    16    16    17   ar
    17    17    18   ar
    18    18    19    1
    19    19    20    1
    20    19    21    1
    21    19    22    1
    22    18    23   ar
    23    13    24   ar
    24    24    25   ar
    25     5    26    1
    26    26    27    1
    27    27     2    1
    28     9     7    1
    29    25    10   ar
    30    23    14   ar
    31     1    28    1
    32     1    29    1
    33     2    30    1
    34     3    31    1
    35     3    32    1
    36     4    33    1
    37     4    34    1
    38     5    35    1
    39     6    36    1
    40     7    37    1
    41     8    38    1
    42     8    39    1
    43     9    40    1
    44    11    41    1
    45    12    42    1
    46    15    43    1
    47    16    44    1
    48    17    45    1
    49    23    46    1
    50    24    47    1
    51    25    48    1
    52    26    49    1
    53    26    50    1
    54    27    51    1
    55    27    52    1
