@<TRIPOS>MOLECULE
*****
 89 90 0 0 0
SMALL
GASTEIGER

@<TRIPOS>ATOM
      1 CA         -1.0429   -2.4980   -1.7440 C.3     1  ASN1        0.1261
      2 CB         -1.2776   -2.8141   -3.2010 C.3     1  ASN1       -0.0339
      3 N          -1.1861   -3.6632   -0.9393 N.2     1  ASN1       -0.2421
      4 CG         -2.1815   -4.4355   -0.7984 C.2     1  ASN1        0.1858
      5 OD1        -1.7290   -5.3848    0.1110 O.2     1  ASN1       -0.4956
      6 CB         -3.6029   -4.6306   -1.2744 C.3     1  ASN1        0.0558
      7 CA         -4.5604   -4.0243   -0.2322 C.3     1  ASN1        0.1586
      8 N          -4.3285   -2.6497   -0.0849 N.2     4  ASN4       -0.2395
      9 CG         -4.6704   -1.8654    0.8049 C.2     4  ASN4        0.1858
     10 OD1        -5.4018   -2.1558    1.9309 O.2     4  ASN4       -0.4955
     11 CB         -4.1130   -0.5626    0.3825 C.3     4  ASN4        0.0558
     12 CA         -2.9841   -0.2614    1.3630 C.3     4  ASN4        0.1587
     13 N          -2.1839    0.8262    0.9338 N.2     4  ASN4       -0.2379
     14 C          -2.4219    2.0247    0.8827 C.2     3  PHE3        0.2048
     15 O          -3.6251    2.5812    1.2740 O.2     3  PHE3       -0.4943
     16 CA         -1.2373    2.7342    0.3460 C.3     3  PHE3        0.1049
     17 CB         -1.4770    3.4664   -0.9290 C.3     3  PHE3       -0.0004
     18 CG         -2.5355    4.4794   -0.7101 C.ar    3  PHE3       -0.0451
     19 CD1        -3.8893    4.2088   -0.9443 C.ar    3  PHE3       -0.0585
     20 CE1        -4.8870    5.1455   -0.7392 C.ar    3  PHE3       -0.0615
     21 CZ         -4.5596    6.4019   -0.2868 C.ar    3  PHE3       -0.0617
     22 CE2        -3.2252    6.6704   -0.0555 C.ar    3  PHE3       -0.0615
     23 CD2        -2.2236    5.7469   -0.2557 C.ar    3  PHE3       -0.0585
     24 N          -0.0367    1.8862    0.2690 N.am    3  PHE3       -0.2908
     25 C           1.0804    2.1666    1.1372 C.3     0  UNK0        0.0040
     26 C           0.5152    0.7705   -0.3973 C.2     2  UNK2        0.2406
     27 O          -0.5193    0.6987   -1.0648 O.2     2  UNK2       -0.2733
     28 C           1.6250   -0.1771   -0.5860 C.3     2  UNK2        0.1302
     29 C           2.8254    0.4875   -1.2517 C.3     2  UNK2       -0.0190
     30 C           3.9514   -0.5312   -1.4449 C.3     2  UNK2       -0.0198
     31 C           4.4010   -1.1117   -0.1299 C.3     2  UNK2        0.0647
     32 N           4.8874   -0.0744    0.7270 N.pl3   2  UNK2       -0.2756
     33 C           6.1262    0.5490    0.3272 C.cat   2  UNK2        0.3868
     34 N           6.9967    0.0950   -0.5030 N.pl3   2  UNK2       -0.1292
     35 N           6.4127    1.8145    0.9424 N.pl3   2  UNK2       -0.1966
     36 C           7.8103    2.1498    1.0574 C.2     2  UNK2        0.3538
     37 O           8.2236    3.4883    0.7931 O.2     2  UNK2       -0.4686
     38 N           8.7025    1.3494    1.3803 N.2     2  UNK2       -0.2235
     39 C           8.6493   -0.0141    1.7144 C.3     2  UNK2        0.0349
     40 N           1.3032   -1.3294   -1.2659 N.2     2  UNK2       -0.2402
     41 C           0.4134   -2.0830   -1.6390 C.2     1  ASN1        0.2083
     42 O           1.1606   -3.0517   -2.3075 O.2     1  ASN1       -0.4942
     43 C          -2.1662   -1.4394    1.6698 C.2     4  ASN4        0.3301
     44 O          -1.6075   -2.6544    2.0122 O.3     4  ASN4       -0.4791
     45 OXT        -0.9204   -1.3742    1.5352 O.2     4  ASN4       -0.2486
     46 C          -4.3963   -4.7128    1.0695 C.2     1  ASN1        0.3301
     47 O          -4.1459   -4.8974    2.4148 O.3     1  ASN1       -0.4791
     48 OXT        -4.6220   -5.9593    0.9023 O.2     1  ASN1       -0.2486
     49 HA         -1.7130   -1.6661   -1.4036 H       1  ASN1        0.0640
     50 HB1        -2.3150   -2.7708   -3.5268 H       1  ASN1        0.0255
     51 HB2        -0.6296   -2.2010   -3.8665 H       1  ASN1        0.0255
     52 HB3        -0.9035   -3.8660   -3.3680 H       1  ASN1        0.0255
     53 HD1        -1.2709   -5.1838    0.9896 H       1  ASN1        0.2934
     54 HB1        -3.7798   -4.1699   -2.2580 H       1  ASN1        0.0386
     55 HB2        -3.8463   -5.6964   -1.3423 H       1  ASN1        0.0386
     56 HA         -5.5918   -4.2539   -0.6005 H       1  ASN1        0.0667
     57 HD1        -6.0309   -2.9685    1.8991 H       4  ASN4        0.2934
     58 HB1        -4.8905    0.2453    0.4342 H       4  ASN4        0.0386
     59 HB2        -3.6812   -0.5953   -0.6155 H       4  ASN4        0.0386
     60 HA         -3.5450   -0.0310    2.3246 H       4  ASN4        0.0667
     61 H          -4.2976    2.0840    1.8651 H       3  PHE3        0.2935
     62 HA         -0.9936    3.4866    1.1213 H       3  PHE3        0.0601
     63 HB1        -1.7672    2.8173   -1.7766 H       3  PHE3        0.0336
     64 HB2        -0.5512    4.0288   -1.1979 H       3  PHE3        0.0336
     65 HD1        -4.1938    3.2243   -1.3102 H       3  PHE3        0.0620
     66 HE1        -5.9203    4.8922   -0.9331 H       3  PHE3        0.0618
     67 HZ         -5.3101    7.1668   -0.1132 H       3  PHE3        0.0618
     68 HE2        -2.9352    7.6617    0.3052 H       3  PHE3        0.0618
     69 HD2        -1.1695    5.9816   -0.0654 H       3  PHE3        0.0620
     70 H           0.7707    2.9366    1.9316 H       0  UNK0        0.0429
     71 H           1.8860    2.7490    0.6002 H       0  UNK0        0.0429
     72 H           1.4470    1.3459    1.7498 H       0  UNK0        0.0429
     73 H           1.9696   -0.4757    0.4644 H       2  UNK2        0.0642
     74 H           3.2309    1.2138   -0.5483 H       2  UNK2        0.0291
     75 H           2.5490    0.8389   -2.2424 H       2  UNK2        0.0291
     76 H           3.6627   -1.3041   -2.1816 H       2  UNK2        0.0296
     77 H           4.8217   -0.0133   -1.8941 H       2  UNK2        0.0296
     78 H           5.1856   -1.8744   -0.3620 H       2  UNK2        0.0655
     79 H           3.5903   -1.6903    0.3806 H       2  UNK2        0.0655
     80 H           4.3913    0.2383    1.6006 H       2  UNK2        0.2579
     81 H           6.8592   -0.8119   -0.9729 H       2  UNK2        0.3062
     82 H           5.6903    2.4636    1.2902 H       2  UNK2        0.2695
     83 H           9.0056    3.8147    1.3113 H       2  UNK2        0.2967
     84 H           7.6470   -0.3999    2.0558 H       2  UNK2        0.0474
     85 H           9.2769   -0.1868    2.6683 H       2  UNK2        0.0474
     86 H           9.0721   -0.7321    0.9801 H       2  UNK2        0.0474
     87 H           2.1120   -3.2958   -2.2124 H       1  ASN1        0.2935
     88 H          -1.8935   -3.2139    2.8316 H       4  ASN4        0.2951
     89 H          -3.2644   -5.1739    2.7920 H       1  ASN1        0.2951
@<TRIPOS>BOND
     1     1     2    1
     2     1     3    1
     3     3     4    2
     4     4     5    1
     5     4     6    1
     6     6     7    1
     7     7     8    1
     8     8     9    2
     9     9    10    1
    10     9    11    1
    11    11    12    1
    12    12    13    1
    13    13    14    2
    14    14    15    1
    15    14    16    1
    16    16    17    1
    17    17    18    1
    18    18    19   ar
    19    19    20   ar
    20    20    21   ar
    21    21    22   ar
    22    22    23   ar
    23    16    24    1
    24    24    25    1
    25    24    26   am
    26    26    27    2
    27    26    28    1
    28    28    29    1
    29    29    30    1
    30    30    31    1
    31    31    32    1
    32    32    33    1
    33    33    34    2
    34    33    35    1
    35    35    36    1
    36    36    37    1
    37    36    38    2
    38    38    39    1
    39    28    40    1
    40    40    41    2
    41    41    42    1
    42    12    43    1
    43    43    44    1
    44    43    45    2
    45     7    46    1
    46    46    47    1
    47    46    48    2
    48    41     1    1
    49    23    18   ar
    50     1    49    1
    51     2    50    1
    52     2    51    1
    53     2    52    1
    54     5    53    1
    55     6    54    1
    56     6    55    1
    57     7    56    1
    58    10    57    1
    59    11    58    1
    60    11    59    1
    61    12    60    1
    62    15    61    1
    63    16    62    1
    64    17    63    1
    65    17    64    1
    66    19    65    1
    67    20    66    1
    68    21    67    1
    69    22    68    1
    70    23    69    1
    71    25    70    1
    72    25    71    1
    73    25    72    1
    74    28    73    1
    75    29    74    1
    76    29    75    1
    77    30    76    1
    78    30    77    1
    79    31    78    1
    80    31    79    1
    81    32    80    1
    82    34    81    1
    83    35    82    1
    84    37    83    1
    85    39    84    1
    86    39    85    1
    87    39    86    1
    88    42    87    1
    89    44    88    1
    90    47    89    1
