@<TRIPOS>MOLECULE
*****
 69 71 0 0 0
SMALL
GASTEIGER

@<TRIPOS>ATOM
      1 C           7.3246   -1.3922   -1.4723 C.3     1  UNL1       -0.0130
      2 N           6.8665   -0.3264   -0.6371 N.3     1  UNL1       -0.3069
      3 C           7.4641    0.9116   -1.1077 C.3     1  UNL1       -0.0130
      4 C           5.4268   -0.2488   -0.5577 C.3     1  UNL1        0.0141
      5 C           5.0259    0.9000    0.3426 C.3     1  UNL1        0.0275
      6 N           3.5899    1.0193    0.4537 N.am    1  UNL1       -0.2987
      7 C           2.9983    0.2690    1.5304 C.3     1  UNL1        0.0305
      8 C           1.6103   -0.2861    1.1092 C.3     1  UNL1        0.0308
      9 N           0.6571    0.7562    1.0371 N.am    1  UNL1       -0.2955
     10 C          -0.6971    0.5587    0.9653 C.2     1  UNL1        0.2490
     11 O          -1.4285    1.6561    0.9321 O.2     1  UNL1       -0.2699
     12 C          -1.4635   -0.7156    0.9220 C.ar    1  UNL1        0.0657
     13 C          -0.9900   -1.9574    0.7243 C.ar    1  UNL1       -0.0370
     14 C          -1.7807   -3.0289    0.6760 C.ar    1  UNL1       -0.0023
     15 C          -1.5059   -4.4694    0.4754 C.3     1  UNL1       -0.0064
     16 C          -1.5544   -4.7872   -1.0057 C.3     1  UNL1       -0.0556
     17 C          -2.5069   -5.2919    1.2526 C.3     1  UNL1       -0.0556
     18 C          -0.0982   -4.7295    0.9599 C.3     1  UNL1       -0.0556
     19 S          -3.4400   -2.3466    0.9258 S.2     1  UNL1       -0.0771
     20 C          -2.8382   -0.6289    1.0712 C.ar    1  UNL1        0.0853
     21 N          -3.7128    0.4637    1.2934 N.am    1  UNL1       -0.2629
     22 C          -4.3187    1.2166    0.2400 C.2     1  UNL1        0.3085
     23 O          -4.0451    0.8719   -0.9117 O.2     1  UNL1       -0.2521
     24 N          -5.1843    2.2972    0.4826 N.am    1  UNL1       -0.2678
     25 C          -5.8284    3.0989   -0.4861 C.ar    1  UNL1        0.0546
     26 C          -5.7201    2.9666   -1.8489 C.ar    1  UNL1       -0.0389
     27 C          -6.4082    3.8223   -2.7180 C.ar    1  UNL1       -0.0585
     28 C          -7.2150    4.8230   -2.2592 C.ar    1  UNL1       -0.0419
     29 C          -7.3351    4.9700   -0.9000 C.ar    1  UNL1        0.0610
     30 CL         -8.3673    6.2503   -0.3162 Cl      1  UNL1       -0.0820
     31 C          -6.6638    4.1352   -0.0510 C.ar    1  UNL1        0.0804
     32 CL         -6.8662    4.3835    1.6837 Cl      1  UNL1       -0.0801
     33 C           1.0194    2.2092    1.0257 C.3     1  UNL1        0.0233
     34 C           1.5343    2.4459   -0.3880 C.3     1  UNL1        0.0399
     35 C           2.9131    1.8531   -0.4949 C.2     1  UNL1        0.2171
     36 O           3.5855    2.0874   -1.5121 O.2     1  UNL1       -0.2755
     37 H           6.5069   -2.0939   -1.7527 H       1  UNL1        0.0391
     38 H           8.1704   -1.9205   -0.9800 H       1  UNL1        0.0391
     39 H           7.7479   -1.0201   -2.4446 H       1  UNL1        0.0391
     40 H           7.4497    1.7157   -0.3737 H       1  UNL1        0.0391
     41 H           7.0507    1.2460   -2.0744 H       1  UNL1        0.0391
     42 H           8.5499    0.6665   -1.2905 H       1  UNL1        0.0391
     43 H           5.0759   -1.1931   -0.1044 H       1  UNL1        0.0442
     44 H           4.9471   -0.1137   -1.5400 H       1  UNL1        0.0442
     45 H           5.4267    0.8018    1.3582 H       1  UNL1        0.0477
     46 H           5.4233    1.8322   -0.1313 H       1  UNL1        0.0477
     47 H           2.9301    0.8146    2.4762 H       1  UNL1        0.0480
     48 H           3.6180   -0.6375    1.6884 H       1  UNL1        0.0480
     49 H           1.3692   -0.9640    1.9530 H       1  UNL1        0.0480
     50 H           1.8272   -0.8025    0.1693 H       1  UNL1        0.0480
     51 H           0.1134   -2.1419    0.5695 H       1  UNL1        0.0634
     52 H          -2.4806   -4.3254   -1.4158 H       1  UNL1        0.0238
     53 H          -1.5190   -5.8696   -1.1990 H       1  UNL1        0.0238
     54 H          -0.6915   -4.2644   -1.4829 H       1  UNL1        0.0238
     55 H          -2.7976   -6.2041    0.6869 H       1  UNL1        0.0238
     56 H          -3.3986   -4.6620    1.4363 H       1  UNL1        0.0238
     57 H          -2.0356   -5.5393    2.2337 H       1  UNL1        0.0238
     58 H           0.6248   -4.3527    0.1971 H       1  UNL1        0.0238
     59 H           0.0302   -5.7975    1.1444 H       1  UNL1        0.0238
     60 H           0.1065   -4.1576    1.8934 H       1  UNL1        0.0238
     61 H          -3.9271    0.7344    2.2670 H       1  UNL1        0.1569
     62 H          -5.3664    2.5262    1.4948 H       1  UNL1        0.1564
     63 H          -5.0992    2.1965   -2.2700 H       1  UNL1        0.0637
     64 H          -6.2965    3.6853   -3.7857 H       1  UNL1        0.0619
     65 H          -7.7560    5.4959   -2.9377 H       1  UNL1        0.0633
     66 H           1.8033    2.3950    1.7871 H       1  UNL1        0.0469
     67 H           0.1288    2.8275    1.2047 H       1  UNL1        0.0469
     68 H           1.5333    3.4974   -0.6713 H       1  UNL1        0.0374
     69 H           0.8877    1.8678   -1.0771 H       1  UNL1        0.0374
@<TRIPOS>BOND
     1     1     2    1
     2     2     3    1
     3     2     4    1
     4     4     5    1
     5     5     6    1
     6     6     7    1
     7     7     8    1
     8     8     9    1
     9     9    10   am
    10    10    11    2
    11    10    12    1
    12    12    13   ar
    13    13    14   ar
    14    14    15    1
    15    15    16    1
    16    15    17    1
    17    15    18    1
    18    14    19   ar
    19    19    20   ar
    20    20    21    1
    21    21    22   am
    22    22    23    2
    23    22    24   am
    24    24    25    1
    25    25    26   ar
    26    26    27   ar
    27    27    28   ar
    28    28    29   ar
    29    29    30    1
    30    29    31   ar
    31    31    32    1
    32     9    33    1
    33    33    34    1
    34    34    35    1
    35    35    36    2
    36    35     6   am
    37    20    12   ar
    38    31    25   ar
    39     1    37    1
    40     1    38    1
    41     1    39    1
    42     3    40    1
    43     3    41    1
    44     3    42    1
    45     4    43    1
    46     4    44    1
    47     5    45    1
    48     5    46    1
    49     7    47    1
    50     7    48    1
    51     8    49    1
    52     8    50    1
    53    13    51    1
    54    16    52    1
    55    16    53    1
    56    16    54    1
    57    17    55    1
    58    17    56    1
    59    17    57    1
    60    18    58    1
    61    18    59    1
    62    18    60    1
    63    21    61    1
    64    24    62    1
    65    26    63    1
    66    27    64    1
    67    28    65    1
    68    33    66    1
    69    33    67    1
    70    34    68    1
    71    34    69    1
