
     RDKit          3D

 69 71  0  0  0  0  0  0  0  0999 V2000
    7.3246   -1.3922   -1.4723 C   0  0  0  0  0  0  0  0  0  0  0  0
    6.8665   -0.3264   -0.6371 N   0  0  0  0  0  0  0  0  0  0  0  0
    7.4641    0.9116   -1.1077 C   0  0  0  0  0  0  0  0  0  0  0  0
    5.4268   -0.2488   -0.5577 C   0  0  0  0  0  0  0  0  0  0  0  0
    5.0259    0.9000    0.3426 C   0  0  0  0  0  0  0  0  0  0  0  0
    3.5899    1.0193    0.4537 N   0  0  0  0  0  0  0  0  0  0  0  0
    2.9983    0.2690    1.5304 C   0  0  0  0  0  0  0  0  0  0  0  0
    1.6103   -0.2861    1.1092 C   0  0  0  0  0  0  0  0  0  0  0  0
    0.6571    0.7562    1.0371 N   0  0  0  0  0  0  0  0  0  0  0  0
   -0.6971    0.5587    0.9653 C   0  0  0  0  0  0  0  0  0  0  0  0
   -1.4285    1.6561    0.9321 O   0  0  0  0  0  0  0  0  0  0  0  0
   -1.4635   -0.7156    0.9220 C   0  0  0  0  0  0  0  0  0  0  0  0
   -0.9900   -1.9574    0.7243 C   0  0  0  0  0  0  0  0  0  0  0  0
   -1.7807   -3.0289    0.6760 C   0  0  0  0  0  0  0  0  0  0  0  0
   -1.5059   -4.4694    0.4754 C   0  0  0  0  0  0  0  0  0  0  0  0
   -1.5544   -4.7872   -1.0057 C   0  0  0  0  0  0  0  0  0  0  0  0
   -2.5069   -5.2919    1.2526 C   0  0  0  0  0  0  0  0  0  0  0  0
   -0.0982   -4.7295    0.9599 C   0  0  0  0  0  0  0  0  0  0  0  0
   -3.4400   -2.3466    0.9258 S   0  0  0  0  0  0  0  0  0  0  0  0
   -2.8382   -0.6289    1.0712 C   0  0  0  0  0  0  0  0  0  0  0  0
   -3.7128    0.4637    1.2934 N   0  0  0  0  0  0  0  0  0  0  0  0
   -4.3187    1.2166    0.2400 C   0  0  0  0  0  0  0  0  0  0  0  0
   -4.0451    0.8719   -0.9117 O   0  0  0  0  0  0  0  0  0  0  0  0
   -5.1843    2.2972    0.4826 N   0  0  0  0  0  0  0  0  0  0  0  0
   -5.8284    3.0989   -0.4861 C   0  0  0  0  0  0  0  0  0  0  0  0
   -5.7201    2.9666   -1.8489 C   0  0  0  0  0  0  0  0  0  0  0  0
   -6.4082    3.8223   -2.7180 C   0  0  0  0  0  0  0  0  0  0  0  0
   -7.2150    4.8230   -2.2592 C   0  0  0  0  0  0  0  0  0  0  0  0
   -7.3351    4.9700   -0.9000 C   0  0  0  0  0  0  0  0  0  0  0  0
   -8.3673    6.2503   -0.3162 Cl  0  0  0  0  0  0  0  0  0  0  0  0
   -6.6638    4.1352   -0.0510 C   0  0  0  0  0  0  0  0  0  0  0  0
   -6.8662    4.3835    1.6837 Cl  0  0  0  0  0  0  0  0  0  0  0  0
    1.0194    2.2092    1.0257 C   0  0  0  0  0  0  0  0  0  0  0  0
    1.5343    2.4459   -0.3880 C   0  0  0  0  0  0  0  0  0  0  0  0
    2.9131    1.8531   -0.4949 C   0  0  0  0  0  0  0  0  0  0  0  0
    3.5855    2.0874   -1.5121 O   0  0  0  0  0  0  0  0  0  0  0  0
    6.5069   -2.0939   -1.7527 H   0  0  0  0  0  0  0  0  0  0  0  0
    8.1704   -1.9205   -0.9800 H   0  0  0  0  0  0  0  0  0  0  0  0
    7.7479   -1.0201   -2.4446 H   0  0  0  0  0  0  0  0  0  0  0  0
    7.4497    1.7157   -0.3737 H   0  0  0  0  0  0  0  0  0  0  0  0
    7.0507    1.2460   -2.0744 H   0  0  0  0  0  0  0  0  0  0  0  0
    8.5499    0.6665   -1.2905 H   0  0  0  0  0  0  0  0  0  0  0  0
    5.0759   -1.1931   -0.1044 H   0  0  0  0  0  0  0  0  0  0  0  0
    4.9471   -0.1137   -1.5400 H   0  0  0  0  0  0  0  0  0  0  0  0
    5.4267    0.8018    1.3582 H   0  0  0  0  0  0  0  0  0  0  0  0
    5.4233    1.8322   -0.1313 H   0  0  0  0  0  0  0  0  0  0  0  0
    2.9301    0.8146    2.4762 H   0  0  0  0  0  0  0  0  0  0  0  0
    3.6180   -0.6375    1.6884 H   0  0  0  0  0  0  0  0  0  0  0  0
    1.3692   -0.9640    1.9530 H   0  0  0  0  0  0  0  0  0  0  0  0
    1.8272   -0.8025    0.1693 H   0  0  0  0  0  0  0  0  0  0  0  0
    0.1134   -2.1419    0.5695 H   0  0  0  0  0  0  0  0  0  0  0  0
   -2.4806   -4.3254   -1.4158 H   0  0  0  0  0  0  0  0  0  0  0  0
   -1.5190   -5.8696   -1.1990 H   0  0  0  0  0  0  0  0  0  0  0  0
   -0.6915   -4.2644   -1.4829 H   0  0  0  0  0  0  0  0  0  0  0  0
   -2.7976   -6.2041    0.6869 H   0  0  0  0  0  0  0  0  0  0  0  0
   -3.3986   -4.6620    1.4363 H   0  0  0  0  0  0  0  0  0  0  0  0
   -2.0356   -5.5393    2.2337 H   0  0  0  0  0  0  0  0  0  0  0  0
    0.6248   -4.3527    0.1971 H   0  0  0  0  0  0  0  0  0  0  0  0
    0.0302   -5.7975    1.1444 H   0  0  0  0  0  0  0  0  0  0  0  0
    0.1065   -4.1576    1.8934 H   0  0  0  0  0  0  0  0  0  0  0  0
   -3.9271    0.7344    2.2670 H   0  0  0  0  0  0  0  0  0  0  0  0
   -5.3664    2.5262    1.4948 H   0  0  0  0  0  0  0  0  0  0  0  0
   -5.0992    2.1965   -2.2700 H   0  0  0  0  0  0  0  0  0  0  0  0
   -6.2965    3.6853   -3.7857 H   0  0  0  0  0  0  0  0  0  0  0  0
   -7.7560    5.4959   -2.9377 H   0  0  0  0  0  0  0  0  0  0  0  0
    1.8033    2.3950    1.7871 H   0  0  0  0  0  0  0  0  0  0  0  0
    0.1288    2.8275    1.2047 H   0  0  0  0  0  0  0  0  0  0  0  0
    1.5333    3.4974   -0.6713 H   0  0  0  0  0  0  0  0  0  0  0  0
    0.8877    1.8678   -1.0771 H   0  0  0  0  0  0  0  0  0  0  0  0
  1  2  1  0
  2  3  1  0
  2  4  1  0
  4  5  1  0
  5  6  1  0
  6  7  1  0
  7  8  1  0
  8  9  1  0
  9 10  1  0
 10 11  2  0
 10 12  1  0
 12 13  1  0
 13 14  2  0
 14 15  1  0
 15 16  1  0
 15 17  1  0
 15 18  1  0
 14 19  1  0
 19 20  1  0
 20 21  1  0
 21 22  1  0
 22 23  2  0
 22 24  1  0
 24 25  1  0
 25 26  2  0
 26 27  1  0
 27 28  2  0
 28 29  1  0
 29 30  1  0
 29 31  2  0
 31 32  1  0
  9 33  1  0
 33 34  1  0
 34 35  1  0
 35 36  2  0
 35  6  1  0
 20 12  2  0
 31 25  1  0
  1 37  1  0
  1 38  1  0
  1 39  1  0
  3 40  1  0
  3 41  1  0
  3 42  1  0
  4 43  1  0
  4 44  1  0
  5 45  1  0
  5 46  1  0
  7 47  1  0
  7 48  1  0
  8 49  1  0
  8 50  1  0
 13 51  1  0
 16 52  1  0
 16 53  1  0
 16 54  1  0
 17 55  1  0
 17 56  1  0
 17 57  1  0
 18 58  1  0
 18 59  1  0
 18 60  1  0
 21 61  1  0
 24 62  1  0
 26 63  1  0
 27 64  1  0
 28 65  1  0
 33 66  1  0
 33 67  1  0
 34 68  1  0
 34 69  1  0
M  END
$$$$
