@<TRIPOS>MOLECULE
*****
 30 32 0 0 0
SMALL
GASTEIGER

@<TRIPOS>ATOM
      1 O           1.3029   -2.8482    1.0699 O.2     1  UNL1       -0.2869
      2 C           0.8854   -1.7330    0.6956 C.ar    1  UNL1        0.1967
      3 C          -0.4907   -1.4797    0.5926 C.ar    1  UNL1        0.0288
      4 C          -0.9729   -0.2631    0.1839 C.ar    1  UNL1        0.1392
      5 C          -2.4029    0.0064    0.0748 C.ar    1  UNL1        0.0174
      6 C          -2.8466    1.2663   -0.3477 C.ar    1  UNL1       -0.0511
      7 C          -4.1870    1.5540   -0.4616 C.ar    1  UNL1       -0.0611
      8 C          -5.1156    0.5816   -0.1534 C.ar    1  UNL1       -0.0617
      9 C          -4.7281   -0.6683    0.2649 C.ar    1  UNL1       -0.0611
     10 C          -3.3584   -0.9052    0.3624 C.ar    1  UNL1       -0.0511
     11 O          -0.0810    0.6686   -0.1113 O.2     1  UNL1       -0.4544
     12 C           1.2142    0.4863   -0.0329 C.ar    1  UNL1        0.1465
     13 C           2.1164    1.4990   -0.3547 C.ar    1  UNL1        0.0268
     14 C           3.4751    1.2831   -0.2643 C.ar    1  UNL1        0.1655
     15 O           4.3936    2.3019   -0.5879 O.3     1  UNL1       -0.5031
     16 C           4.0025    0.0734    0.1428 C.ar    1  UNL1        0.2015
     17 O           5.3679   -0.1496    0.2357 O.3     1  UNL1       -0.5009
     18 C           3.1135   -0.9376    0.4642 C.ar    1  UNL1        0.1766
     19 O           3.6559   -2.1495    0.8722 O.3     1  UNL1       -0.5027
     20 C           1.7536   -0.7147    0.3714 C.ar    1  UNL1        0.1091
     21 H          -1.1396   -2.2992    0.8541 H       1  UNL1        0.0693
     22 H          -2.1334    2.0241   -0.5880 H       1  UNL1        0.0625
     23 H          -4.5326    2.5407   -0.7924 H       1  UNL1        0.0618
     24 H          -6.1634    0.8564   -0.2589 H       1  UNL1        0.0618
     25 H          -5.4463   -1.4261    0.5051 H       1  UNL1        0.0618
     26 H          -3.0792   -1.9046    0.6965 H       1  UNL1        0.0625
     27 H           1.7668    2.4524   -0.6746 H       1  UNL1        0.0692
     28 H           4.3264    3.2240   -0.1647 H       1  UNL1        0.2923
     29 H           5.7893   -0.7735   -0.4384 H       1  UNL1        0.2924
     30 H           3.5143   -2.5657    1.7728 H       1  UNL1        0.2923
@<TRIPOS>BOND
     1     1     2    2
     2     2     3   ar
     3     3     4   ar
     4     4     5    1
     5     5     6   ar
     6     6     7   ar
     7     7     8   ar
     8     8     9   ar
     9     9    10   ar
    10     4    11   ar
    11    11    12   ar
    12    12    13   ar
    13    13    14   ar
    14    14    15    1
    15    14    16   ar
    16    16    17    1
    17    16    18   ar
    18    18    19    1
    19    18    20   ar
    20    20     2   ar
    21    10     5   ar
    22    20    12   ar
    23     3    21    1
    24     6    22    1
    25     7    23    1
    26     8    24    1
    27     9    25    1
    28    10    26    1
    29    13    27    1
    30    15    28    1
    31    17    29    1
    32    19    30    1
