@<TRIPOS>MOLECULE
*****
 37 39 0 0 0
SMALL
GASTEIGER

@<TRIPOS>ATOM
      1 C          -0.9447   -3.6793   -1.9788 C.3     1  UNL1        0.0140
      2 C          -1.5117   -2.2936   -2.0902 C.2     1  UNL1        0.2322
      3 O          -2.5541   -2.1705   -2.7852 O.2     1  UNL1       -0.2741
      4 N          -0.8859   -1.2289   -1.4427 N.am    1  UNL1       -0.1853
      5 N           0.2566   -1.2708   -0.6623 N.2     1  UNL1       -0.1809
      6 C           0.8220   -0.1405   -0.5744 C.2     1  UNL1        0.0688
      7 C           2.0447    0.2204    0.1570 C.ar    1  UNL1       -0.0020
      8 C           2.5380    1.4899    0.1600 C.ar    1  UNL1       -0.0494
      9 C           3.6793    1.8688    0.8317 C.ar    1  UNL1       -0.0196
     10 C           4.3850    0.9329    1.5512 C.ar    1  UNL1        0.1169
     11 O           5.5519    1.2618    2.2532 O.3     1  UNL1       -0.5068
     12 C           3.8997   -0.3680    1.5617 C.ar    1  UNL1       -0.0196
     13 C           2.7499   -0.7315    0.8802 C.ar    1  UNL1       -0.0494
     14 C           0.0306    0.8274   -1.3729 C.3     1  UNL1        0.0164
     15 C          -1.3181    0.1591   -1.4605 C.3     1  UNL1        0.0794
     16 C          -2.1405    0.5228   -0.3287 C.ar    1  UNL1       -0.0233
     17 C          -2.1333    1.7728    0.2137 C.ar    1  UNL1       -0.0566
     18 C          -2.9003    2.1329    1.3081 C.ar    1  UNL1       -0.0601
     19 C          -3.7103    1.2168    1.8910 C.ar    1  UNL1       -0.0434
     20 C          -3.7589   -0.0581    1.3870 C.ar    1  UNL1        0.0413
     21 CL         -4.8242   -1.2100    2.1762 Cl      1  UNL1       -0.0835
     22 C          -2.9914   -0.4068    0.2976 C.ar    1  UNL1       -0.0384
     23 H           0.1635   -3.5657   -1.9179 H       1  UNL1        0.0323
     24 H          -1.1487   -4.2864   -2.8662 H       1  UNL1        0.0323
     25 H          -1.3374   -4.1866   -1.0759 H       1  UNL1        0.0323
     26 H           1.9814    2.2403   -0.4107 H       1  UNL1        0.0625
     27 H           4.0420    2.8823    0.8131 H       1  UNL1        0.0654
     28 H           6.1269    2.0383    2.0238 H       1  UNL1        0.2921
     29 H           4.4749   -1.0937    2.1385 H       1  UNL1        0.0654
     30 H           2.3964   -1.7363    0.9028 H       1  UNL1        0.0625
     31 H           0.4920    0.8709   -2.3933 H       1  UNL1        0.0351
     32 H           0.0334    1.7960   -0.9005 H       1  UNL1        0.0351
     33 H          -1.8053    0.3285   -2.4386 H       1  UNL1        0.0574
     34 H          -1.5293    2.5865   -0.1905 H       1  UNL1        0.0621
     35 H          -2.8425    3.1514    1.6877 H       1  UNL1        0.0618
     36 H          -4.3116    1.5244    2.7601 H       1  UNL1        0.0632
     37 H          -3.0198   -1.3975   -0.1056 H       1  UNL1        0.0635
@<TRIPOS>BOND
     1     1     2    1
     2     2     3    2
     3     2     4   am
     4     4     5    1
     5     5     6    2
     6     6     7    1
     7     7     8   ar
     8     8     9   ar
     9     9    10   ar
    10    10    11    1
    11    10    12   ar
    12    12    13   ar
    13     6    14    1
    14    14    15    1
    15    15    16    1
    16    16    17   ar
    17    17    18   ar
    18    18    19   ar
    19    19    20   ar
    20    20    21    1
    21    20    22   ar
    22    15     4    1
    23    22    16   ar
    24    13     7   ar
    25     1    23    1
    26     1    24    1
    27     1    25    1
    28     8    26    1
    29     9    27    1
    30    11    28    1
    31    12    29    1
    32    13    30    1
    33    14    31    1
    34    14    32    1
    35    15    33    1
    36    17    34    1
    37    18    35    1
    38    19    36    1
    39    22    37    1
