@<TRIPOS>MOLECULE
*****
 29 31 0 0 0
SMALL
GASTEIGER

@<TRIPOS>ATOM
      1 O           0.0397    0.3165   -1.8147 O.2     1  UNL1       -0.2695
      2 C           0.5066    0.1295   -0.6841 C.2     1  UNL1        0.2545
      3 N          -0.1830   -0.0121    0.5499 N.am    1  UNL1       -0.2220
      4 C          -1.6376    0.0478    0.6606 C.3     1  UNL1        0.1109
      5 C          -2.2760   -1.0756   -0.0617 C.3     1  UNL1       -0.0170
      6 C          -3.0657   -0.7655   -1.2710 C.3     1  UNL1        0.0265
      7 C          -3.6766    0.5821   -1.3122 C.2     1  UNL1        0.2193
      8 O          -4.7425    0.7728   -1.9818 O.2     1  UNL1       -0.2754
      9 N          -3.1210    1.7215   -0.6205 N.am    1  UNL1       -0.2548
     10 C          -2.1554    1.3965    0.3647 C.2     1  UNL1        0.2402
     11 O          -1.6504    2.2964    1.0918 O.2     1  UNL1       -0.2733
     12 C           0.8152   -0.2062    1.5381 C.2     1  UNL1        0.2545
     13 O           0.5343   -0.3674    2.7608 O.2     1  UNL1       -0.2695
     14 C           2.1418   -0.1904    0.9480 C.ar    1  UNL1        0.0494
     15 C           3.3725   -0.3415    1.5527 C.ar    1  UNL1       -0.0489
     16 C           4.4835   -0.2830    0.7434 C.ar    1  UNL1       -0.0610
     17 C           4.3503   -0.0799   -0.6202 C.ar    1  UNL1       -0.0610
     18 C           3.1074    0.0621   -1.1572 C.ar    1  UNL1       -0.0489
     19 C           1.9516    0.0130   -0.3975 C.ar    1  UNL1        0.0494
     20 H          -1.8314   -0.1008    1.7632 H       1  UNL1        0.0602
     21 H          -2.9027   -1.7225    0.6205 H       1  UNL1        0.0293
     22 H          -1.4682   -1.7941   -0.3917 H       1  UNL1        0.0293
     23 H          -3.9050   -1.4937   -1.3861 H       1  UNL1        0.0359
     24 H          -2.4600   -0.8854   -2.2033 H       1  UNL1        0.0359
     25 H          -3.4033    2.7009   -0.8252 H       1  UNL1        0.1575
     26 H           3.4624   -0.4985    2.6114 H       1  UNL1        0.0625
     27 H           5.4333   -0.4014    1.2229 H       1  UNL1        0.0618
     28 H           5.2637   -0.0431   -1.2065 H       1  UNL1        0.0618
     29 H           3.0163    0.2220   -2.2361 H       1  UNL1        0.0625
@<TRIPOS>BOND
     1     1     2    2
     2     2     3   am
     3     3     4    1
     4     4     5    1
     5     5     6    1
     6     6     7    1
     7     7     8    2
     8     7     9   am
     9     9    10   am
    10    10    11    2
    11     3    12   am
    12    12    13    2
    13    12    14    1
    14    14    15   ar
    15    15    16   ar
    16    16    17   ar
    17    17    18   ar
    18    18    19   ar
    19    19     2    1
    20    10     4    1
    21    19    14   ar
    22     4    20    1
    23     5    21    1
    24     5    22    1
    25     6    23    1
    26     6    24    1
    27     9    25    1
    28    15    26    1
    29    16    27    1
    30    17    28    1
    31    18    29    1
