
     RDKit          3D

 38 38  0  0  0  0  0  0  0  0999 V2000
   -4.8790    1.7021    1.1607 C   0  0  0  0  0  0  0  0  0  0  0  0
   -3.7306    1.6238    0.1774 C   0  0  0  0  0  0  0  0  0  0  0  0
   -3.8825    0.3866   -0.6824 C   0  0  0  0  0  0  0  0  0  0  0  0
   -3.8846   -0.8729    0.1154 C   0  0  0  0  0  0  0  0  0  0  0  0
   -2.7646   -1.1031    0.8576 O   0  0  0  0  0  0  0  0  0  0  0  0
   -1.4515   -1.2984    0.5664 C   0  0  0  0  0  0  0  0  0  0  0  0
   -0.8735   -1.3293   -0.6687 C   0  0  0  0  0  0  0  0  0  0  0  0
    0.4933   -1.5367   -0.8384 C   0  0  0  0  0  0  0  0  0  0  0  0
    1.3262   -1.7215    0.2452 C   0  0  0  0  0  0  0  0  0  0  0  0
    3.0228   -1.9765   -0.0149 S   0  0  0  0  0  6  0  0  0  0  0  0
    3.5716   -2.7928    1.1328 O   0  0  0  0  0  0  0  0  0  0  0  0
    3.3070   -2.7256   -1.2737 O   0  0  0  0  0  0  0  0  0  0  0  0
    3.8808   -0.4841   -0.0303 N   0  0  0  0  0  0  0  0  0  0  0  0
    3.4387    0.3855   -1.0991 C   0  0  0  0  0  0  0  0  0  0  0  0
    4.2164    1.6433   -1.0497 C   0  0  0  0  0  0  0  0  0  0  0  0
    3.9989    2.5480   -1.8905 O   0  0  0  0  0  0  0  0  0  0  0  0
    5.2075    1.8379   -0.0599 N   0  0  0  0  0  0  0  0  0  0  0  0
    5.9451    2.9761    0.0226 O   0  0  0  0  0  0  0  0  0  0  0  0
    0.7523   -1.6924    1.4951 C   0  0  0  0  0  0  0  0  0  0  0  0
   -0.5847   -1.4886    1.6473 C   0  0  0  0  0  0  0  0  0  0  0  0
   -5.1539    2.7666    1.2464 H   0  0  0  0  0  0  0  0  0  0  0  0
   -5.7611    1.1751    0.7486 H   0  0  0  0  0  0  0  0  0  0  0  0
   -4.5263    1.2703    2.1204 H   0  0  0  0  0  0  0  0  0  0  0  0
   -2.7499    1.5548    0.6995 H   0  0  0  0  0  0  0  0  0  0  0  0
   -3.7030    2.5161   -0.4752 H   0  0  0  0  0  0  0  0  0  0  0  0
   -4.8988    0.4902   -1.1709 H   0  0  0  0  0  0  0  0  0  0  0  0
   -3.1710    0.3680   -1.5120 H   0  0  0  0  0  0  0  0  0  0  0  0
   -4.7697   -0.8956    0.8266 H   0  0  0  0  0  0  0  0  0  0  0  0
   -4.1204   -1.7174   -0.6039 H   0  0  0  0  0  0  0  0  0  0  0  0
   -1.4877   -1.2012   -1.5389 H   0  0  0  0  0  0  0  0  0  0  0  0
    0.8783   -1.5485   -1.8332 H   0  0  0  0  0  0  0  0  0  0  0  0
    4.9024   -0.6755   -0.1269 H   0  0  0  0  0  0  0  0  0  0  0  0
    2.3453    0.5574   -1.0506 H   0  0  0  0  0  0  0  0  0  0  0  0
    3.6088   -0.0943   -2.1071 H   0  0  0  0  0  0  0  0  0  0  0  0
    5.4394    1.1155    0.6778 H   0  0  0  0  0  0  0  0  0  0  0  0
    5.6608    3.5468   -0.7348 H   0  0  0  0  0  0  0  0  0  0  0  0
    1.3811   -1.8354    2.3790 H   0  0  0  0  0  0  0  0  0  0  0  0
   -0.9840   -1.4746    2.6428 H   0  0  0  0  0  0  0  0  0  0  0  0
  1  2  1  0
  2  3  1  0
  3  4  1  0
  4  5  1  0
  5  6  1  0
  6  7  2  0
  7  8  1  0
  8  9  2  0
  9 10  1  0
 10 11  2  0
 10 12  2  0
 10 13  1  0
 13 14  1  0
 14 15  1  0
 15 16  2  0
 15 17  1  0
 17 18  1  0
  9 19  1  0
 19 20  2  0
 20  6  1  0
  1 21  1  0
  1 22  1  0
  1 23  1  0
  2 24  1  0
  2 25  1  0
  3 26  1  0
  3 27  1  0
  4 28  1  0
  4 29  1  0
  7 30  1  0
  8 31  1  0
 13 32  1  0
 14 33  1  0
 14 34  1  0
 17 35  1  0
 18 36  1  0
 19 37  1  0
 20 38  1  0
M  END
$$$$
