@<TRIPOS>MOLECULE
*****
 38 38 0 0 0
SMALL
GASTEIGER

@<TRIPOS>ATOM
      1 C          -4.8790    1.7021    1.1607 C.3     1  UNL1       -0.0652
      2 C          -3.7306    1.6238    0.1774 C.3     1  UNL1       -0.0528
      3 C          -3.8825    0.3866   -0.6824 C.3     1  UNL1       -0.0189
      4 C          -3.8846   -0.8729    0.1154 C.3     1  UNL1        0.0896
      5 O          -2.7646   -1.1031    0.8576 O.3     1  UNL1       -0.4920
      6 C          -1.4515   -1.2984    0.5664 C.ar    1  UNL1        0.1206
      7 C          -0.8735   -1.3293   -0.6687 C.ar    1  UNL1       -0.0181
      8 C           0.4933   -1.5367   -0.8384 C.ar    1  UNL1       -0.0319
      9 C           1.3262   -1.7215    0.2452 C.ar    1  UNL1        0.1055
     10 S           3.0228   -1.9765   -0.0149 S.O2    1  UNL1        0.0588
     11 O           3.5716   -2.7928    1.1328 O.2     1  UNL1       -0.1530
     12 O           3.3070   -2.7256   -1.2737 O.2     1  UNL1       -0.1530
     13 N           3.8808   -0.4841   -0.0303 N.3     1  UNL1       -0.1811
     14 C           3.4387    0.3855   -1.0991 C.3     1  UNL1        0.0957
     15 C           4.2164    1.6433   -1.0497 C.2     1  UNL1        0.2510
     16 O           3.9989    2.5480   -1.8905 O.2     1  UNL1       -0.2723
     17 N           5.2075    1.8379   -0.0599 N.am    1  UNL1       -0.1964
     18 O           5.9451    2.9761    0.0226 O.3     1  UNL1       -0.2952
     19 C           0.7523   -1.6924    1.4951 C.ar    1  UNL1       -0.0319
     20 C          -0.5847   -1.4886    1.6473 C.ar    1  UNL1       -0.0181
     21 H          -5.1539    2.7666    1.2464 H       1  UNL1        0.0230
     22 H          -5.7611    1.1751    0.7486 H       1  UNL1        0.0230
     23 H          -4.5263    1.2703    2.1204 H       1  UNL1        0.0230
     24 H          -2.7499    1.5548    0.6995 H       1  UNL1        0.0264
     25 H          -3.7030    2.5161   -0.4752 H       1  UNL1        0.0264
     26 H          -4.8988    0.4902   -1.1709 H       1  UNL1        0.0298
     27 H          -3.1710    0.3680   -1.5120 H       1  UNL1        0.0298
     28 H          -4.7697   -0.8956    0.8266 H       1  UNL1        0.0696
     29 H          -4.1204   -1.7174   -0.6039 H       1  UNL1        0.0696
     30 H          -1.4877   -1.2012   -1.5389 H       1  UNL1        0.0655
     31 H           0.8783   -1.5485   -1.8332 H       1  UNL1        0.0638
     32 H           4.9024   -0.6755   -0.1269 H       1  UNL1        0.1485
     33 H           2.3453    0.5574   -1.0506 H       1  UNL1        0.0537
     34 H           3.6088   -0.0943   -2.1071 H       1  UNL1        0.0537
     35 H           5.4394    1.1155    0.6778 H       1  UNL1        0.1822
     36 H           5.6608    3.5468   -0.7348 H       1  UNL1        0.2414
     37 H           1.3811   -1.8354    2.3790 H       1  UNL1        0.0638
     38 H          -0.9840   -1.4746    2.6428 H       1  UNL1        0.0655
@<TRIPOS>BOND
     1     1     2    1
     2     2     3    1
     3     3     4    1
     4     4     5    1
     5     5     6    1
     6     6     7   ar
     7     7     8   ar
     8     8     9   ar
     9     9    10    1
    10    10    11    2
    11    10    12    2
    12    10    13    1
    13    13    14    1
    14    14    15    1
    15    15    16    2
    16    15    17   am
    17    17    18    1
    18     9    19   ar
    19    19    20   ar
    20    20     6   ar
    21     1    21    1
    22     1    22    1
    23     1    23    1
    24     2    24    1
    25     2    25    1
    26     3    26    1
    27     3    27    1
    28     4    28    1
    29     4    29    1
    30     7    30    1
    31     8    31    1
    32    13    32    1
    33    14    33    1
    34    14    34    1
    35    17    35    1
    36    18    36    1
    37    19    37    1
    38    20    38    1
