@<TRIPOS>MOLECULE
*****
 52 57 0 0 0
SMALL
GASTEIGER

@<TRIPOS>ATOM
      1 C          -4.2794    1.3150    0.2311 C.3     1  UNL1       -0.0203
      2 C          -3.5567    0.1137   -0.2629 C.ar    1  UNL1        0.0660
      3 N          -3.9696   -0.9307   -0.9733 N.ar    1  UNL1       -0.1752
      4 N          -3.0305   -1.7955   -1.2158 N.ar    1  UNL1       -0.2556
      5 C          -3.0903   -3.0558   -1.9549 C.3     1  UNL1        0.0537
      6 C          -3.6144   -4.2726   -1.1858 C.3     1  UNL1       -0.0285
      7 C          -4.4335   -3.6314   -2.2273 C.3     1  UNL1       -0.0285
      8 C          -1.9031   -1.2941   -0.6240 C.ar    1  UNL1        0.1297
      9 C          -2.1975   -0.1022   -0.0202 C.ar    1  UNL1        0.0304
     10 C          -0.9744    0.4446    0.6174 C.3     1  UNL1        0.0854
     11 C          -0.7076    1.8160    0.1428 C.ar    1  UNL1       -0.0221
     12 C          -0.2212    2.0777   -1.1124 C.ar    1  UNL1       -0.0551
     13 C           0.0354    3.3457   -1.5810 C.ar    1  UNL1       -0.0431
     14 C          -0.2270    4.3913   -0.7003 C.ar    1  UNL1        0.0410
     15 CL          0.0810    6.0215   -1.2438 Cl      1  UNL1       -0.0835
     16 C          -0.7162    4.1835    0.5719 C.ar    1  UNL1       -0.0431
     17 C          -0.9524    2.8808    0.9799 C.ar    1  UNL1       -0.0551
     18 N           0.0467   -0.5065    0.3651 N.am    1  UNL1       -0.2531
     19 C           1.4055   -0.4906    0.7757 C.ar    1  UNL1        0.0545
     20 C           1.8221   -1.0189    2.0006 C.ar    1  UNL1       -0.0324
     21 C           3.1469   -0.9975    2.3774 C.ar    1  UNL1       -0.0041
     22 C           3.5350   -1.5725    3.6898 C.3     1  UNL1       -0.0361
     23 C           4.0854   -0.4534    1.5502 C.ar    1  UNL1        0.1641
     24 N           5.4152   -0.2764    1.6069 N.ar    1  UNL1       -0.1292
     25 N           5.8467    0.3117    0.5276 N.ar    1  UNL1       -0.1340
     26 C           4.7822    0.5294   -0.2611 C.ar    1  UNL1        0.1347
     27 C           4.8110    1.1836   -1.6051 C.3     1  UNL1       -0.0041
     28 N           3.6914    0.0596    0.3639 N.ar    1  UNL1       -0.2846
     29 C           2.3833    0.0467   -0.0252 C.ar    1  UNL1        0.0344
     30 C          -0.4927   -1.5716   -0.3960 C.2     1  UNL1        0.2700
     31 O           0.1061   -2.6093   -0.8286 O.2     1  UNL1       -0.2679
     32 H          -5.3638    1.2082    0.1875 H       1  UNL1        0.0293
     33 H          -3.9127    1.5576    1.2655 H       1  UNL1        0.0293
     34 H          -4.0063    2.2136   -0.3866 H       1  UNL1        0.0293
     35 H          -2.2376   -3.3024   -2.6145 H       1  UNL1        0.0545
     36 H          -3.1743   -5.2595   -1.3983 H       1  UNL1        0.0286
     37 H          -3.9126   -4.1200   -0.1237 H       1  UNL1        0.0286
     38 H          -5.3047   -2.9996   -1.9073 H       1  UNL1        0.0286
     39 H          -4.5661   -4.1857   -3.1928 H       1  UNL1        0.0286
     40 H          -1.0978    0.4852    1.7389 H       1  UNL1        0.0606
     41 H          -0.0283    1.2485   -1.7701 H       1  UNL1        0.0621
     42 H           0.4199    3.5547   -2.5728 H       1  UNL1        0.0632
     43 H          -0.9204    5.0083    1.2590 H       1  UNL1        0.0632
     44 H          -1.3386    2.6626    1.9748 H       1  UNL1        0.0621
     45 H           1.0647   -1.4376    2.6260 H       1  UNL1        0.0640
     46 H           3.3704   -0.8434    4.5200 H       1  UNL1        0.0279
     47 H           4.6161   -1.8511    3.7213 H       1  UNL1        0.0279
     48 H           2.9777   -2.5284    3.8657 H       1  UNL1        0.0279
     49 H           5.8073    1.0889   -2.0418 H       1  UNL1        0.0308
     50 H           4.0965    0.6356   -2.2489 H       1  UNL1        0.0308
     51 H           4.5279    2.2568   -1.5135 H       1  UNL1        0.0308
     52 H           2.1551    0.4657   -0.9713 H       1  UNL1        0.0833
@<TRIPOS>BOND
     1     1     2    1
     2     2     3   ar
     3     3     4   ar
     4     4     5    1
     5     5     6    1
     6     6     7    1
     7     4     8   ar
     8     8     9   ar
     9     9    10    1
    10    10    11    1
    11    11    12   ar
    12    12    13   ar
    13    13    14   ar
    14    14    15    1
    15    14    16   ar
    16    16    17   ar
    17    10    18    1
    18    18    19    1
    19    19    20   ar
    20    20    21   ar
    21    21    22    1
    22    21    23   ar
    23    23    24   ar
    24    24    25   ar
    25    25    26   ar
    26    26    27    1
    27    26    28   ar
    28    28    29   ar
    29    18    30   am
    30    30    31    2
    31     9     2   ar
    32    17    11   ar
    33    29    19   ar
    34     7     5    1
    35    30     8    1
    36    28    23   ar
    37     1    32    1
    38     1    33    1
    39     1    34    1
    40     5    35    1
    41     6    36    1
    42     6    37    1
    43     7    38    1
    44     7    39    1
    45    10    40    1
    46    12    41    1
    47    13    42    1
    48    16    43    1
    49    17    44    1
    50    20    45    1
    51    22    46    1
    52    22    47    1
    53    22    48    1
    54    27    49    1
    55    27    50    1
    56    27    51    1
    57    29    52    1
