
     RDKit          3D

 52 57  0  0  0  0  0  0  0  0999 V2000
   -4.2794    1.3150    0.2311 C   0  0  0  0  0  0  0  0  0  0  0  0
   -3.5567    0.1137   -0.2629 C   0  0  0  0  0  0  0  0  0  0  0  0
   -3.9696   -0.9307   -0.9733 N   0  0  0  0  0  0  0  0  0  0  0  0
   -3.0305   -1.7955   -1.2158 N   0  0  0  0  0  0  0  0  0  0  0  0
   -3.0903   -3.0558   -1.9549 C   0  0  0  0  0  0  0  0  0  0  0  0
   -3.6144   -4.2726   -1.1858 C   0  0  0  0  0  0  0  0  0  0  0  0
   -4.4335   -3.6314   -2.2273 C   0  0  0  0  0  0  0  0  0  0  0  0
   -1.9031   -1.2941   -0.6240 C   0  0  0  0  0  0  0  0  0  0  0  0
   -2.1975   -0.1022   -0.0202 C   0  0  0  0  0  0  0  0  0  0  0  0
   -0.9744    0.4446    0.6174 C   0  0  0  0  0  0  0  0  0  0  0  0
   -0.7076    1.8160    0.1428 C   0  0  0  0  0  0  0  0  0  0  0  0
   -0.2212    2.0777   -1.1124 C   0  0  0  0  0  0  0  0  0  0  0  0
    0.0354    3.3457   -1.5810 C   0  0  0  0  0  0  0  0  0  0  0  0
   -0.2270    4.3913   -0.7003 C   0  0  0  0  0  0  0  0  0  0  0  0
    0.0810    6.0215   -1.2438 Cl  0  0  0  0  0  0  0  0  0  0  0  0
   -0.7162    4.1835    0.5719 C   0  0  0  0  0  0  0  0  0  0  0  0
   -0.9524    2.8808    0.9799 C   0  0  0  0  0  0  0  0  0  0  0  0
    0.0467   -0.5065    0.3651 N   0  0  0  0  0  0  0  0  0  0  0  0
    1.4055   -0.4906    0.7757 C   0  0  0  0  0  0  0  0  0  0  0  0
    1.8221   -1.0189    2.0006 C   0  0  0  0  0  0  0  0  0  0  0  0
    3.1469   -0.9975    2.3774 C   0  0  0  0  0  0  0  0  0  0  0  0
    3.5350   -1.5725    3.6898 C   0  0  0  0  0  0  0  0  0  0  0  0
    4.0854   -0.4534    1.5502 C   0  0  0  0  0  0  0  0  0  0  0  0
    5.4152   -0.2764    1.6069 N   0  0  0  0  0  0  0  0  0  0  0  0
    5.8467    0.3117    0.5276 N   0  0  0  0  0  0  0  0  0  0  0  0
    4.7822    0.5294   -0.2611 C   0  0  0  0  0  0  0  0  0  0  0  0
    4.8110    1.1836   -1.6051 C   0  0  0  0  0  0  0  0  0  0  0  0
    3.6914    0.0596    0.3639 N   0  0  0  0  0  0  0  0  0  0  0  0
    2.3833    0.0467   -0.0252 C   0  0  0  0  0  0  0  0  0  0  0  0
   -0.4927   -1.5716   -0.3960 C   0  0  0  0  0  0  0  0  0  0  0  0
    0.1061   -2.6093   -0.8286 O   0  0  0  0  0  0  0  0  0  0  0  0
   -5.3638    1.2082    0.1875 H   0  0  0  0  0  0  0  0  0  0  0  0
   -3.9127    1.5576    1.2655 H   0  0  0  0  0  0  0  0  0  0  0  0
   -4.0063    2.2136   -0.3866 H   0  0  0  0  0  0  0  0  0  0  0  0
   -2.2376   -3.3024   -2.6145 H   0  0  0  0  0  0  0  0  0  0  0  0
   -3.1743   -5.2595   -1.3983 H   0  0  0  0  0  0  0  0  0  0  0  0
   -3.9126   -4.1200   -0.1237 H   0  0  0  0  0  0  0  0  0  0  0  0
   -5.3047   -2.9996   -1.9073 H   0  0  0  0  0  0  0  0  0  0  0  0
   -4.5661   -4.1857   -3.1928 H   0  0  0  0  0  0  0  0  0  0  0  0
   -1.0978    0.4852    1.7389 H   0  0  0  0  0  0  0  0  0  0  0  0
   -0.0283    1.2485   -1.7701 H   0  0  0  0  0  0  0  0  0  0  0  0
    0.4199    3.5547   -2.5728 H   0  0  0  0  0  0  0  0  0  0  0  0
   -0.9204    5.0083    1.2590 H   0  0  0  0  0  0  0  0  0  0  0  0
   -1.3386    2.6626    1.9748 H   0  0  0  0  0  0  0  0  0  0  0  0
    1.0647   -1.4376    2.6260 H   0  0  0  0  0  0  0  0  0  0  0  0
    3.3704   -0.8434    4.5200 H   0  0  0  0  0  0  0  0  0  0  0  0
    4.6161   -1.8511    3.7213 H   0  0  0  0  0  0  0  0  0  0  0  0
    2.9777   -2.5284    3.8657 H   0  0  0  0  0  0  0  0  0  0  0  0
    5.8073    1.0889   -2.0418 H   0  0  0  0  0  0  0  0  0  0  0  0
    4.0965    0.6356   -2.2489 H   0  0  0  0  0  0  0  0  0  0  0  0
    4.5279    2.2568   -1.5135 H   0  0  0  0  0  0  0  0  0  0  0  0
    2.1551    0.4657   -0.9713 H   0  0  0  0  0  0  0  0  0  0  0  0
  1  2  1  0
  2  3  2  0
  3  4  1  0
  4  5  1  0
  5  6  1  0
  6  7  1  0
  4  8  1  0
  8  9  2  0
  9 10  1  0
 10 11  1  0
 11 12  2  0
 12 13  1  0
 13 14  2  0
 14 15  1  0
 14 16  1  0
 16 17  2  0
 10 18  1  0
 18 19  1  0
 19 20  1  0
 20 21  2  0
 21 22  1  0
 21 23  1  0
 23 24  2  0
 24 25  1  0
 25 26  2  0
 26 27  1  0
 26 28  1  0
 28 29  1  0
 18 30  1  0
 30 31  2  0
  9  2  1  0
 17 11  1  0
 29 19  2  0
  7  5  1  0
 30  8  1  0
 28 23  1  0
  1 32  1  0
  1 33  1  0
  1 34  1  0
  5 35  1  0
  6 36  1  0
  6 37  1  0
  7 38  1  0
  7 39  1  0
 10 40  1  0
 12 41  1  0
 13 42  1  0
 16 43  1  0
 17 44  1  0
 20 45  1  0
 22 46  1  0
 22 47  1  0
 22 48  1  0
 27 49  1  0
 27 50  1  0
 27 51  1  0
 29 52  1  0
M  END
$$$$
