
     RDKit          3D

 50 53  0  0  0  0  0  0  0  0999 V2000
   -4.5042    5.2039    0.3883 C   0  0  0  0  0  0  0  0  0  0  0  0
   -5.1577    4.1304   -0.1093 O   0  0  0  0  0  0  0  0  0  0  0  0
   -4.5459    3.1940   -0.8412 C   0  0  0  0  0  0  0  0  0  0  0  0
   -3.4184    2.4596   -0.2297 C   0  0  2  0  0  0  0  0  0  0  0  0
   -2.1984    3.1525    0.2056 C   0  0  0  0  0  0  0  0  0  0  0  0
   -2.1300    2.1759   -0.9201 C   0  0  1  0  0  0  0  0  0  0  0  0
   -1.6387    0.8016   -0.7443 C   0  0  1  0  0  0  0  0  0  0  0  0
   -2.6550   -0.2239   -1.3371 C   0  0  0  0  0  0  0  0  0  0  0  0
   -0.3747    0.4552   -1.4392 C   0  0  0  0  0  0  0  0  0  0  0  0
    0.6337   -0.2617   -0.7660 C   0  0  0  0  0  0  0  0  0  0  0  0
    1.8021   -0.6728   -1.3405 C   0  0  0  0  0  0  0  0  0  0  0  0
    2.8357   -1.4159   -0.6593 C   0  0  0  0  0  0  0  0  0  0  0  0
    2.6551   -2.4140    0.1766 C   0  0  0  0  0  0  0  0  0  0  0  0
    1.3350   -2.7396    0.4028 F   0  0  0  0  0  0  0  0  0  0  0  0
    3.6548   -3.2254    0.8107 C   0  0  0  0  0  0  0  0  0  0  0  0
    4.9703   -3.1281    0.4293 C   0  0  0  0  0  0  0  0  0  0  0  0
    6.0243   -3.7958    0.9609 C   0  0  0  0  0  0  0  0  0  0  0  0
    5.7728   -4.7056    2.0352 C   0  0  0  0  0  0  0  0  0  0  0  0
    6.7601   -5.3884    2.6552 C   0  0  0  0  0  0  0  0  0  0  0  0
    7.6836   -6.0020    3.2324 N   0  0  0  0  0  0  0  0  0  0  0  0
    4.4145   -4.7444    2.3606 C   0  0  0  0  0  0  0  0  0  0  0  0
    3.4140   -4.0979    1.8385 N   0  0  0  0  0  0  0  0  0  0  0  0
    1.9585   -0.3304   -2.6975 C   0  0  0  0  0  0  0  0  0  0  0  0
    0.9987    0.3660   -3.3796 C   0  0  0  0  0  0  0  0  0  0  0  0
   -0.1574    0.7543   -2.7590 C   0  0  0  0  0  0  0  0  0  0  0  0
   -1.1102    1.4434   -3.5019 F   0  0  0  0  0  0  0  0  0  0  0  0
   -1.4694    0.3670    0.6449 N   0  0  0  0  0  0  0  0  0  0  0  0
   -2.4665    0.3874    1.4711 C   0  0  0  0  0  0  0  0  0  0  0  0
   -2.3768   -0.0094    2.7768 N   0  0  0  0  0  0  0  0  0  0  0  0
   -3.9773    0.9990    0.7515 S   0  0  0  0  0  0  0  0  0  0  0  0
   -5.2067    5.9050    0.9604 H   0  0  0  0  0  0  0  0  0  0  0  0
   -3.8300    4.8410    1.2319 H   0  0  0  0  0  0  0  0  0  0  0  0
   -3.9175    5.8207   -0.2835 H   0  0  0  0  0  0  0  0  0  0  0  0
   -5.3516    2.4352   -1.1358 H   0  0  0  0  0  0  0  0  0  0  0  0
   -4.2343    3.6635   -1.8212 H   0  0  0  0  0  0  0  0  0  0  0  0
   -2.0338    4.2372   -0.0875 H   0  0  0  0  0  0  0  0  0  0  0  0
   -1.6091    2.8528    1.1004 H   0  0  0  0  0  0  0  0  0  0  0  0
   -2.1003    2.5820   -1.9556 H   0  0  0  0  0  0  0  0  0  0  0  0
   -3.5633    0.2815   -1.6872 H   0  0  0  0  0  0  0  0  0  0  0  0
   -2.8290   -0.9826   -0.5552 H   0  0  0  0  0  0  0  0  0  0  0  0
   -2.2193   -0.7556   -2.2144 H   0  0  0  0  0  0  0  0  0  0  0  0
    0.4219   -0.4857    0.2909 H   0  0  0  0  0  0  0  0  0  0  0  0
    3.8907   -1.1250   -0.8432 H   0  0  0  0  0  0  0  0  0  0  0  0
    5.2391   -2.4386   -0.4033 H   0  0  0  0  0  0  0  0  0  0  0  0
    7.0360   -3.6778    0.6009 H   0  0  0  0  0  0  0  0  0  0  0  0
    4.2574   -5.4767    3.2037 H   0  0  0  0  0  0  0  0  0  0  0  0
    2.9036   -0.6748   -3.1425 H   0  0  0  0  0  0  0  0  0  0  0  0
    1.1359    0.6278   -4.4251 H   0  0  0  0  0  0  0  0  0  0  0  0
   -1.5017   -0.3370    3.2657 H   0  0  0  0  0  0  0  0  0  0  0  0
   -3.2210   -0.0275    3.4290 H   0  0  0  0  0  0  0  0  0  0  0  0
  1  2  1  0
  2  3  1  0
  4  3  1  6
  4  5  1  0
  5  6  1  0
  6  7  1  0
  7  8  1  6
  7  9  1  0
  9 10  2  0
 10 11  1  0
 11 12  1  0
 12 13  2  0
 13 14  1  0
 13 15  1  0
 15 16  2  0
 16 17  1  0
 17 18  2  0
 18 19  1  0
 19 20  3  0
 18 21  1  0
 21 22  2  0
 11 23  2  0
 23 24  1  0
 24 25  2  0
 25 26  1  0
  7 27  1  0
 27 28  2  0
 28 29  1  0
 28 30  1  0
  6  4  1  0
 25  9  1  0
 30  4  1  0
 22 15  1  0
  1 31  1  0
  1 32  1  0
  1 33  1  0
  3 34  1  0
  3 35  1  0
  5 36  1  0
  5 37  1  0
  6 38  1  6
  8 39  1  0
  8 40  1  0
  8 41  1  0
 10 42  1  0
 12 43  1  0
 16 44  1  0
 17 45  1  0
 21 46  1  0
 23 47  1  0
 24 48  1  0
 29 49  1  0
 29 50  1  0
M  END
$$$$
