@<TRIPOS>MOLECULE
*****
 50 53 0 0 0
SMALL
GASTEIGER

@<TRIPOS>ATOM
      1 C          -4.5042    5.2039    0.3883 C.3     1  UNL1        0.0365
      2 O          -5.1577    4.1304   -0.1093 O.3     1  UNL1       -0.3816
      3 C          -4.5459    3.1940   -0.8412 C.3     1  UNL1        0.0627
      4 C          -3.4184    2.4596   -0.2297 C.3     1  UNL1        0.0528
      5 C          -2.1984    3.1525    0.2056 C.3     1  UNL1       -0.0287
      6 C          -2.1300    2.1759   -0.9201 C.3     1  UNL1        0.0068
      7 C          -1.6387    0.8016   -0.7443 C.3     1  UNL1        0.0931
      8 C          -2.6550   -0.2239   -1.3371 C.3     1  UNL1       -0.0352
      9 C          -0.3747    0.4552   -1.4392 C.ar    1  UNL1        0.0157
     10 C           0.6337   -0.2617   -0.7660 C.ar    1  UNL1       -0.0463
     11 C           1.8021   -0.6728   -1.3405 C.ar    1  UNL1       -0.0217
     12 C           2.8357   -1.4159   -0.6593 C.2     1  UNL1       -0.0172
     13 C           2.6551   -2.4140    0.1766 C.2     1  UNL1        0.1492
     14 F           1.3350   -2.7396    0.4028 F       1  UNL1       -0.2032
     15 C           3.6548   -3.2254    0.8107 C.ar    1  UNL1        0.0990
     16 C           4.9703   -3.1281    0.4293 C.ar    1  UNL1       -0.0322
     17 C           6.0243   -3.7958    0.9609 C.ar    1  UNL1       -0.0408
     18 C           5.7728   -4.7056    2.0352 C.ar    1  UNL1        0.0699
     19 C           6.7601   -5.3884    2.6552 C.1     1  UNL1        0.1007
     20 N           7.6836   -6.0020    3.2324 N.1     1  UNL1       -0.1908
     21 C           4.4145   -4.7444    2.3606 C.ar    1  UNL1        0.0457
     22 N           3.4140   -4.0979    1.8385 N.ar    1  UNL1       -0.2514
     23 C           1.9585   -0.3304   -2.6975 C.ar    1  UNL1       -0.0518
     24 C           0.9987    0.3660   -3.3796 C.ar    1  UNL1       -0.0255
     25 C          -0.1574    0.7543   -2.7590 C.ar    1  UNL1        0.1289
     26 F          -1.1102    1.4434   -3.5019 F       1  UNL1       -0.2051
     27 N          -1.4694    0.3670    0.6449 N.2     1  UNL1       -0.2521
     28 C          -2.4665    0.3874    1.4711 C.2     1  UNL1        0.1481
     29 N          -2.3768   -0.0094    2.7768 N.pl3   1  UNL1       -0.3380
     30 S          -3.9773    0.9990    0.7515 S.3     1  UNL1       -0.0817
     31 H          -5.2067    5.9050    0.9604 H       1  UNL1        0.0523
     32 H          -3.8300    4.8410    1.2319 H       1  UNL1        0.0523
     33 H          -3.9175    5.8207   -0.2835 H       1  UNL1        0.0523
     34 H          -5.3516    2.4352   -1.1358 H       1  UNL1        0.0574
     35 H          -4.2343    3.6635   -1.8212 H       1  UNL1        0.0574
     36 H          -2.0338    4.2372   -0.0875 H       1  UNL1        0.0283
     37 H          -1.6091    2.8528    1.1004 H       1  UNL1        0.0283
     38 H          -2.1003    2.5820   -1.9556 H       1  UNL1        0.0342
     39 H          -3.5633    0.2815   -1.6872 H       1  UNL1        0.0256
     40 H          -2.8290   -0.9826   -0.5552 H       1  UNL1        0.0256
     41 H          -2.2193   -0.7556   -2.2144 H       1  UNL1        0.0256
     42 H           0.4219   -0.4857    0.2909 H       1  UNL1        0.0628
     43 H           3.8907   -1.1250   -0.8432 H       1  UNL1        0.0653
     44 H           5.2391   -2.4386   -0.4033 H       1  UNL1        0.0640
     45 H           7.0360   -3.6778    0.6009 H       1  UNL1        0.0631
     46 H           4.2574   -5.4767    3.2037 H       1  UNL1        0.0843
     47 H           2.9036   -0.6748   -3.1425 H       1  UNL1        0.0624
     48 H           1.1359    0.6278   -4.4251 H       1  UNL1        0.0646
     49 H          -1.5017   -0.3370    3.2657 H       1  UNL1        0.1442
     50 H          -3.2210   -0.0275    3.4290 H       1  UNL1        0.1442
@<TRIPOS>BOND
     1     1     2    1
     2     2     3    1
     3     4     3    1
     4     4     5    1
     5     5     6    1
     6     6     7    1
     7     7     8    1
     8     7     9    1
     9     9    10   ar
    10    10    11   ar
    11    11    12    1
    12    12    13    2
    13    13    14    1
    14    13    15    1
    15    15    16   ar
    16    16    17   ar
    17    17    18   ar
    18    18    19    1
    19    19    20    3
    20    18    21   ar
    21    21    22   ar
    22    11    23   ar
    23    23    24   ar
    24    24    25   ar
    25    25    26    1
    26     7    27    1
    27    27    28    2
    28    28    29    1
    29    28    30    1
    30     6     4    1
    31    25     9   ar
    32    30     4    1
    33    22    15   ar
    34     1    31    1
    35     1    32    1
    36     1    33    1
    37     3    34    1
    38     3    35    1
    39     5    36    1
    40     5    37    1
    41     6    38    1
    42     8    39    1
    43     8    40    1
    44     8    41    1
    45    10    42    1
    46    12    43    1
    47    16    44    1
    48    17    45    1
    49    21    46    1
    50    23    47    1
    51    24    48    1
    52    29    49    1
    53    29    50    1
