@<TRIPOS>MOLECULE
*****
 38 39 0 0 0
SMALL
GASTEIGER

@<TRIPOS>ATOM
      1 C           5.6208   -1.0239    0.7386 C.3     1  UNL1       -0.0306
      2 C           5.3114    0.4431    0.8626 C.3     1  UNL1        0.0900
      3 O           4.1244    0.7959    0.1445 O.3     1  UNL1       -0.4614
      4 C           2.9502    0.1702    0.5191 C.2     1  UNL1        0.3427
      5 O           3.0771   -0.6480    1.4645 O.2     1  UNL1       -0.2448
      6 C           1.6727    0.4368   -0.1278 C.ar    1  UNL1        0.1025
      7 C           0.4862   -0.1593    0.2104 C.ar    1  UNL1        0.0561
      8 C           0.1741   -1.1724    1.2524 C.3     1  UNL1       -0.0214
      9 N          -0.3950    0.4095   -0.6640 N.ar    1  UNL1       -0.2359
     10 N           0.2077    1.2763   -1.4636 N.ar    1  UNL1       -0.1706
     11 C           1.5206    1.3323   -1.1660 C.ar    1  UNL1        0.0746
     12 C           2.5213    2.1851   -1.8408 C.3     1  UNL1       -0.0198
     13 C          -1.7959    0.0827   -0.6843 C.ar    1  UNL1        0.0659
     14 C          -2.4915    0.6387    0.3757 C.ar    1  UNL1       -0.0328
     15 C          -3.8515    0.3975    0.4692 C.ar    1  UNL1       -0.0180
     16 C          -4.4753   -0.3891   -0.4950 C.ar    1  UNL1        0.1202
     17 O          -5.8334   -0.6579   -0.4431 O.3     1  UNL1       -0.4951
     18 C          -6.6210   -0.1238    0.6148 C.3     1  UNL1        0.0788
     19 C          -3.7577   -0.9301   -1.5398 C.ar    1  UNL1       -0.0180
     20 C          -2.3856   -0.6910   -1.6406 C.ar    1  UNL1       -0.0328
     21 H           5.1684   -1.5025   -0.1410 H       1  UNL1        0.0262
     22 H           5.3019   -1.5766    1.6386 H       1  UNL1        0.0262
     23 H           6.7177   -1.1455    0.6675 H       1  UNL1        0.0262
     24 H           6.0963    1.1131    0.5161 H       1  UNL1        0.0695
     25 H           5.1788    0.6521    1.9560 H       1  UNL1        0.0695
     26 H           1.0476   -1.8073    1.4578 H       1  UNL1        0.0293
     27 H          -0.2074   -0.7062    2.1940 H       1  UNL1        0.0293
     28 H          -0.6081   -1.8867    0.8616 H       1  UNL1        0.0293
     29 H           3.4782    1.6702   -1.9246 H       1  UNL1        0.0293
     30 H           2.5686    3.1373   -1.2770 H       1  UNL1        0.0293
     31 H           2.1654    2.4422   -2.8479 H       1  UNL1        0.0293
     32 H          -2.0749    1.2509    1.1490 H       1  UNL1        0.0640
     33 H          -4.4982    0.7700    1.2394 H       1  UNL1        0.0655
     34 H          -6.6524    0.9864    0.5682 H       1  UNL1        0.0660
     35 H          -7.6206   -0.5964    0.5020 H       1  UNL1        0.0660
     36 H          -6.1806   -0.3797    1.5995 H       1  UNL1        0.0660
     37 H          -4.2014   -1.5570   -2.3262 H       1  UNL1        0.0655
     38 H          -1.7387   -1.0693   -2.4197 H       1  UNL1        0.0640
@<TRIPOS>BOND
     1     1     2    1
     2     2     3    1
     3     3     4    1
     4     4     5    2
     5     4     6    1
     6     6     7   ar
     7     7     8    1
     8     7     9   ar
     9     9    10   ar
    10    10    11   ar
    11    11    12    1
    12     9    13    1
    13    13    14   ar
    14    14    15   ar
    15    15    16   ar
    16    16    17    1
    17    17    18    1
    18    16    19   ar
    19    19    20   ar
    20    11     6   ar
    21    20    13   ar
    22     1    21    1
    23     1    22    1
    24     1    23    1
    25     2    24    1
    26     2    25    1
    27     8    26    1
    28     8    27    1
    29     8    28    1
    30    12    29    1
    31    12    30    1
    32    12    31    1
    33    14    32    1
    34    15    33    1
    35    18    34    1
    36    18    35    1
    37    18    36    1
    38    19    37    1
    39    20    38    1
