@<TRIPOS>MOLECULE
*****
 33 34 0 0 0
SMALL
GASTEIGER

@<TRIPOS>ATOM
      1 C          -6.6353    0.9959    0.4965 C.3     1  UNL1        0.0788
      2 O          -5.8475   -0.1471    0.8011 O.3     1  UNL1       -0.4951
      3 C          -4.5561   -0.2856    0.3124 C.ar    1  UNL1        0.1201
      4 C          -3.9204    0.6552   -0.5027 C.ar    1  UNL1       -0.0196
      5 C          -2.6283    0.4487   -0.9529 C.ar    1  UNL1       -0.0536
      6 C          -2.0041   -0.7184   -0.5628 C.ar    1  UNL1       -0.0300
      7 C          -0.6296   -0.9268   -1.0482 C.3     1  UNL1        0.0383
      8 N           0.2972   -0.3569   -0.0849 N.am    1  UNL1       -0.2950
      9 C           1.6973   -0.4383   -0.3419 C.2     1  UNL1        0.3056
     10 O           2.2023   -0.9678   -1.3434 O.2     1  UNL1       -0.2524
     11 N           2.5699    0.1299    0.6225 N.am    1  UNL1       -0.2483
     12 C           3.9928    0.1439    0.5371 C.ar    1  UNL1        0.1717
     13 N           4.8415   -0.5555    0.8774 N.ar    1  UNL1       -0.2259
     14 C           6.1448   -0.4061    0.7238 C.ar    1  UNL1        0.1147
     15 C           6.5727    0.7103    0.0834 C.ar    1  UNL1        0.3320
     16 S           5.0011    1.5529   -0.2965 S.2     1  UNL1        0.0219
     17 N           7.8091    1.2398   -0.2766 N.pl3   1  UNL1        0.0887
     18 O           7.9404    2.4449   -0.9498 O.co2   1  UNL1       -0.5755
     19 O           8.7637    0.5193    0.0695 O.2     1  UNL1        0.0421
     20 C          -2.5997   -1.6734    0.2428 C.ar    1  UNL1       -0.0536
     21 C          -3.8908   -1.4390    0.6767 C.ar    1  UNL1       -0.0196
     22 H          -7.4190    1.1618    1.2677 H       1  UNL1        0.0660
     23 H          -7.0411    0.8426   -0.5237 H       1  UNL1        0.0660
     24 H          -5.9947    1.9240    0.5376 H       1  UNL1        0.0660
     25 H          -4.4723    1.5465   -0.7676 H       1  UNL1        0.0654
     26 H          -2.1505    1.1888   -1.5844 H       1  UNL1        0.0622
     27 H          -0.4056   -2.0026   -1.1952 H       1  UNL1        0.0512
     28 H          -0.4074   -0.4170   -2.0155 H       1  UNL1        0.0512
     29 H          -0.0423    0.1119    0.7932 H       1  UNL1        0.1506
     30 H           2.2899    0.6054    1.5083 H       1  UNL1        0.1583
     31 H           6.9167   -1.1087    1.0700 H       1  UNL1        0.0906
     32 H          -2.0532   -2.5826    0.5202 H       1  UNL1        0.0622
     33 H          -4.3417   -2.1957    1.3057 H       1  UNL1        0.0654
@<TRIPOS>UNITY_ATOM_ATTR
17 1
charge 1
18 1
charge -1
@<TRIPOS>BOND
     1     1     2    1
     2     2     3    1
     3     3     4   ar
     4     4     5   ar
     5     5     6   ar
     6     6     7    1
     7     7     8    1
     8     8     9   am
     9     9    10    2
    10     9    11   am
    11    11    12    1
    12    12    13   ar
    13    13    14   ar
    14    14    15   ar
    15    15    16   ar
    16    15    17    1
    17    17    18    1
    18    17    19    2
    19     6    20   ar
    20    20    21   ar
    21    21     3   ar
    22    16    12   ar
    23     1    22    1
    24     1    23    1
    25     1    24    1
    26     4    25    1
    27     5    26    1
    28     7    27    1
    29     7    28    1
    30     8    29    1
    31    11    30    1
    32    14    31    1
    33    20    32    1
    34    21    33    1
