
     RDKit          3D

 46 49  0  0  0  0  0  0  0  0999 V2000
    9.3764   -0.3478    1.1660 N   0  0  0  0  0  0  0  0  0  0  0  0
    8.2200   -0.3234    1.1801 C   0  0  0  0  0  0  0  0  0  0  0  0
    6.7755   -0.3159    1.1958 C   0  0  0  0  0  0  0  0  0  0  0  0
    6.0554   -1.0951    2.0780 C   0  0  0  0  0  0  0  0  0  0  0  0
    4.7188   -1.0956    2.1040 N   0  0  0  0  0  0  0  0  0  0  0  0
    3.9527   -0.3223    1.2567 C   0  0  0  0  0  0  0  0  0  0  0  0
    2.5172   -0.4058    1.3701 C   0  0  0  0  0  0  0  0  0  0  0  0
    1.9627   -1.5376    1.6116 O   0  0  0  0  0  0  0  0  0  0  0  0
    1.6375    0.6802    1.2446 N   0  0  0  0  0  0  0  0  0  0  0  0
    0.2075    0.5203    1.3562 C   0  0  0  0  0  0  0  0  0  0  0  0
   -0.3784    0.6384    2.5832 C   0  0  0  0  0  0  0  0  0  0  0  0
   -1.7562    0.4960    2.7681 C   0  0  0  0  0  0  0  0  0  0  0  0
   -2.5188    0.2271    1.6479 C   0  0  0  0  0  0  0  0  0  0  0  0
   -3.8546    0.0867    1.8144 F   0  0  0  0  0  0  0  0  0  0  0  0
   -1.9511    0.1012    0.3837 C   0  0  0  0  0  0  0  0  0  0  0  0
   -2.8840   -0.1931   -0.7307 C   0  0  1  0  0  0  0  0  0  0  0  0
   -2.1837   -0.3970   -2.0542 C   0  0  0  0  0  0  0  0  0  0  0  0
   -1.4836    0.7154   -2.4527 F   0  0  0  0  0  0  0  0  0  0  0  0
   -3.1166   -0.8189   -2.9775 F   0  0  0  0  0  0  0  0  0  0  0  0
   -3.5231   -1.4718   -0.4003 N   0  0  0  0  0  0  0  0  0  0  0  0
   -4.7098   -1.7861   -0.8412 C   0  0  0  0  0  0  0  0  0  0  0  0
   -5.3033   -3.0324   -0.5044 N   0  0  0  0  0  0  0  0  0  0  0  0
   -5.3246   -0.8403   -1.6372 O   0  0  0  0  0  0  0  0  0  0  0  0
   -5.2212    0.5276   -1.2938 C   0  0  2  0  0  0  0  0  0  0  0  0
   -4.4101    1.4919   -2.0422 C   0  0  0  0  0  0  0  0  0  0  0  0
   -3.8998    0.9191   -0.7700 C   0  0  2  0  0  0  0  0  0  0  0  0
   -0.5912    0.2514    0.2649 C   0  0  0  0  0  0  0  0  0  0  0  0
    4.6420    0.4517    0.3743 C   0  0  0  0  0  0  0  0  0  0  0  0
    3.9272    1.2225   -0.6716 C   0  0  0  0  0  0  0  0  0  0  0  0
    4.5028    0.9158   -1.8950 F   0  0  0  0  0  0  0  0  0  0  0  0
    4.0758    2.5725   -0.3880 F   0  0  0  0  0  0  0  0  0  0  0  0
    6.0500    0.4617    0.3395 C   0  0  0  0  0  0  0  0  0  0  0  0
    6.6096   -1.7325    2.7779 H   0  0  0  0  0  0  0  0  0  0  0  0
    1.9867    1.6496    1.1066 H   0  0  0  0  0  0  0  0  0  0  0  0
    0.2476    0.8496    3.4407 H   0  0  0  0  0  0  0  0  0  0  0  0
   -2.2033    0.5946    3.7607 H   0  0  0  0  0  0  0  0  0  0  0  0
   -1.4851   -1.2719   -1.9436 H   0  0  0  0  0  0  0  0  0  0  0  0
   -5.9182   -3.5179   -1.1545 H   0  0  0  0  0  0  0  0  0  0  0  0
   -5.0905   -3.4331    0.4261 H   0  0  0  0  0  0  0  0  0  0  0  0
   -6.1505    0.8883   -0.7663 H   0  0  0  0  0  0  0  0  0  0  0  0
   -4.8054    2.5522   -2.0220 H   0  0  0  0  0  0  0  0  0  0  0  0
   -4.0259    1.2415   -3.0308 H   0  0  0  0  0  0  0  0  0  0  0  0
   -3.9373    1.6139    0.1052 H   0  0  0  0  0  0  0  0  0  0  0  0
   -0.1626    0.1484   -0.7161 H   0  0  0  0  0  0  0  0  0  0  0  0
    2.8716    1.0279   -0.7507 H   0  0  0  0  0  0  0  0  0  0  0  0
    6.5520    1.0927   -0.3736 H   0  0  0  0  0  0  0  0  0  0  0  0
  1  2  3  0
  2  3  1  0
  3  4  2  0
  4  5  1  0
  5  6  2  0
  6  7  1  0
  7  8  2  0
  7  9  1  0
  9 10  1  0
 10 11  2  0
 11 12  1  0
 12 13  2  0
 13 14  1  0
 13 15  1  0
 15 16  1  0
 16 17  1  6
 17 18  1  0
 17 19  1  0
 16 20  1  0
 20 21  2  0
 21 22  1  0
 21 23  1  0
 23 24  1  0
 24 25  1  0
 25 26  1  0
 15 27  2  0
  6 28  1  0
 28 29  1  0
 29 30  1  0
 29 31  1  0
 28 32  2  0
 32  3  1  0
 27 10  1  0
 26 16  1  0
 26 24  1  0
  4 33  1  0
  9 34  1  0
 11 35  1  0
 12 36  1  0
 17 37  1  0
 22 38  1  0
 22 39  1  0
 24 40  1  1
 25 41  1  0
 25 42  1  0
 26 43  1  1
 27 44  1  0
 29 45  1  0
 32 46  1  0
M  END
$$$$
