@<TRIPOS>MOLECULE
*****
 46 49 0 0 0
SMALL
GASTEIGER

@<TRIPOS>ATOM
      1 N           9.3764   -0.3478    1.1660 N.1     1  UNL1       -0.1908
      2 C           8.2200   -0.3234    1.1801 C.1     1  UNL1        0.1007
      3 C           6.7755   -0.3159    1.1958 C.ar    1  UNL1        0.0703
      4 C           6.0554   -1.0951    2.0780 C.ar    1  UNL1        0.0458
      5 N           4.7188   -1.0956    2.1040 N.ar    1  UNL1       -0.2486
      6 C           3.9527   -0.3223    1.2567 C.ar    1  UNL1        0.1342
      7 C           2.5172   -0.4058    1.3701 C.2     1  UNL1        0.2670
      8 O           1.9627   -1.5376    1.6116 O.2     1  UNL1       -0.2682
      9 N           1.6375    0.6802    1.2446 N.am    1  UNL1       -0.2802
     10 C           0.2075    0.5203    1.3562 C.ar    1  UNL1        0.0342
     11 C          -0.3784    0.6384    2.5832 C.ar    1  UNL1       -0.0377
     12 C          -1.7562    0.4960    2.7681 C.ar    1  UNL1       -0.0243
     13 C          -2.5188    0.2271    1.6479 C.ar    1  UNL1        0.1292
     14 F          -3.8546    0.0867    1.8144 F       1  UNL1       -0.2051
     15 C          -1.9511    0.1012    0.3837 C.ar    1  UNL1        0.0228
     16 C          -2.8840   -0.1931   -0.7307 C.3     1  UNL1        0.1603
     17 C          -2.1837   -0.3970   -2.0542 C.3     1  UNL1        0.2686
     18 F          -1.4836    0.7154   -2.4527 F       1  UNL1       -0.2062
     19 F          -3.1166   -0.8189   -2.9775 F       1  UNL1       -0.2062
     20 N          -3.5231   -1.4718   -0.4003 N.2     1  UNL1       -0.2194
     21 C          -4.7098   -1.7861   -0.8412 C.2     1  UNL1        0.2764
     22 N          -5.3033   -3.0324   -0.5044 N.pl3   1  UNL1       -0.3134
     23 O          -5.3246   -0.8403   -1.6372 O.2     1  UNL1       -0.4622
     24 C          -5.2212    0.5276   -1.2938 C.3     1  UNL1        0.1091
     25 C          -4.4101    1.4919   -2.0422 C.3     1  UNL1       -0.0064
     26 C          -3.8998    0.9191   -0.7700 C.3     1  UNL1        0.0344
     27 C          -0.5912    0.2514    0.2649 C.ar    1  UNL1       -0.0321
     28 C           4.6420    0.4517    0.3743 C.ar    1  UNL1        0.0491
     29 C           3.9272    1.2225   -0.6716 C.3     1  UNL1        0.2666
     30 F           4.5028    0.9158   -1.8950 F       1  UNL1       -0.2038
     31 F           4.0758    2.5725   -0.3880 F       1  UNL1       -0.2038
     32 C           6.0500    0.4617    0.3395 C.ar    1  UNL1       -0.0322
     33 H           6.6096   -1.7325    2.7779 H       1  UNL1        0.0843
     34 H           1.9867    1.6496    1.1066 H       1  UNL1        0.1552
     35 H           0.2476    0.8496    3.4407 H       1  UNL1        0.0637
     36 H          -2.2033    0.5946    3.7607 H       1  UNL1        0.0647
     37 H          -1.4851   -1.2719   -1.9436 H       1  UNL1        0.1047
     38 H          -5.9182   -3.5179   -1.1545 H       1  UNL1        0.1466
     39 H          -5.0905   -3.4331    0.4261 H       1  UNL1        0.1466
     40 H          -6.1505    0.8883   -0.7663 H       1  UNL1        0.0737
     41 H          -4.8054    2.5522   -2.0220 H       1  UNL1        0.0306
     42 H          -4.0259    1.2415   -3.0308 H       1  UNL1        0.0306
     43 H          -3.9373    1.6139    0.1052 H       1  UNL1        0.0366
     44 H          -0.1626    0.1484   -0.7161 H       1  UNL1        0.0640
     45 H           2.8716    1.0279   -0.7507 H       1  UNL1        0.1072
     46 H           6.5520    1.0927   -0.3736 H       1  UNL1        0.0636
@<TRIPOS>BOND
     1     1     2    3
     2     2     3    1
     3     3     4   ar
     4     4     5   ar
     5     5     6   ar
     6     6     7    1
     7     7     8    2
     8     7     9   am
     9     9    10    1
    10    10    11   ar
    11    11    12   ar
    12    12    13   ar
    13    13    14    1
    14    13    15   ar
    15    15    16    1
    16    16    17    1
    17    17    18    1
    18    17    19    1
    19    16    20    1
    20    20    21    2
    21    21    22    1
    22    21    23    1
    23    23    24    1
    24    24    25    1
    25    25    26    1
    26    15    27   ar
    27     6    28   ar
    28    28    29    1
    29    29    30    1
    30    29    31    1
    31    28    32   ar
    32    32     3   ar
    33    27    10   ar
    34    26    16    1
    35    26    24    1
    36     4    33    1
    37     9    34    1
    38    11    35    1
    39    12    36    1
    40    17    37    1
    41    22    38    1
    42    22    39    1
    43    24    40    1
    44    25    41    1
    45    25    42    1
    46    26    43    1
    47    27    44    1
    48    29    45    1
    49    32    46    1
