@<TRIPOS>MOLECULE
*****
 48 49 0 0 0
SMALL
GASTEIGER

@<TRIPOS>ATOM
      1 C          -3.7454    0.0418   -0.6530 C.3     1  UNL1        0.1129
      2 C          -4.4826    0.7674   -1.7841 C.3     1  UNL1        0.0730
      3 O          -5.7792    1.0863   -1.3809 O.3     1  UNL1       -0.3924
      4 O          -2.4743   -0.2408   -1.1153 O.3     1  UNL1       -0.3420
      5 C          -1.5908   -0.5080   -0.0725 C.3     1  UNL1        0.1735
      6 O          -2.2165   -1.4595    0.7534 O.3     1  UNL1       -0.3533
      7 C          -1.4469   -2.6274    0.7999 C.3     1  UNL1        0.0395
      8 C          -1.3305    0.7835    0.6582 C.3     1  UNL1        0.0869
      9 S           0.1467    1.6423    0.0562 S.3     1  UNL1       -0.1160
     10 C           1.6514    0.7013    0.4194 C.3     1  UNL1        0.1335
     11 O           1.7562   -0.4839   -0.2408 O.3     1  UNL1       -0.3553
     12 C           2.9080   -0.7466   -0.9120 C.3     1  UNL1        0.1115
     13 C           2.9355   -2.2756   -1.0813 C.3     1  UNL1        0.0730
     14 O           2.9209   -2.7611    0.2459 O.3     1  UNL1       -0.3924
     15 C           4.1920   -0.4026   -0.2459 C.3     1  UNL1        0.1118
     16 O           5.0274    0.1506   -1.2448 O.3     1  UNL1       -0.3865
     17 C           4.0373    0.6924    0.7840 C.3     1  UNL1        0.1126
     18 O           3.8605    0.1789    2.0601 O.3     1  UNL1       -0.3865
     19 C           2.8997    1.5536    0.3279 C.3     1  UNL1        0.1189
     20 O           2.7657    2.7483    0.9819 O.3     1  UNL1       -0.3857
     21 C          -2.5057    1.7279    0.6420 C.3     1  UNL1        0.1000
     22 O          -2.3855    2.5217   -0.4977 O.3     1  UNL1       -0.3879
     23 C          -3.7863    0.9500    0.5339 C.3     1  UNL1        0.1105
     24 O          -3.9716    0.2530    1.7320 O.3     1  UNL1       -0.3865
     25 H          -4.2625   -0.9010   -0.3915 H       1  UNL1        0.0647
     26 H          -4.5091    0.1333   -2.7030 H       1  UNL1        0.0584
     27 H          -3.9416    1.6964   -2.0293 H       1  UNL1        0.0584
     28 H          -6.1757    0.2778   -0.9510 H       1  UNL1        0.2095
     29 H          -0.6644   -0.9657   -0.4486 H       1  UNL1        0.0922
     30 H          -1.9092   -3.4024    1.4436 H       1  UNL1        0.0525
     31 H          -0.3996   -2.4092    1.0845 H       1  UNL1        0.0525
     32 H          -1.4299   -3.0439   -0.2341 H       1  UNL1        0.0525
     33 H          -1.1522    0.5438    1.7453 H       1  UNL1        0.0489
     34 H           1.5657    0.4282    1.5139 H       1  UNL1        0.0740
     35 H           2.8379   -0.3603   -1.9718 H       1  UNL1        0.0646
     36 H           2.0355   -2.6467   -1.5717 H       1  UNL1        0.0584
     37 H           3.8916   -2.6241   -1.5186 H       1  UNL1        0.0584
     38 H           3.1834   -3.7008    0.3046 H       1  UNL1        0.2095
     39 H           4.7578   -1.2666    0.1578 H       1  UNL1        0.0647
     40 H           4.9756    1.1355   -1.2534 H       1  UNL1        0.2100
     41 H           4.9702    1.3189    0.8274 H       1  UNL1        0.0647
     42 H           3.8051   -0.7876    2.1294 H       1  UNL1        0.2100
     43 H           3.0666    1.7264   -0.7688 H       1  UNL1        0.0655
     44 H           2.3198    3.4139    0.4131 H       1  UNL1        0.2100
     45 H          -2.4791    2.3547    1.5602 H       1  UNL1        0.0633
     46 H          -1.5957    2.3097   -1.0533 H       1  UNL1        0.2099
     47 H          -4.6373    1.6863    0.4558 H       1  UNL1        0.0646
     48 H          -3.6387    0.7899    2.4930 H       1  UNL1        0.2100
@<TRIPOS>BOND
     1     1     2    1
     2     2     3    1
     3     1     4    1
     4     4     5    1
     5     5     6    1
     6     6     7    1
     7     5     8    1
     8     8     9    1
     9     9    10    1
    10    10    11    1
    11    11    12    1
    12    12    13    1
    13    13    14    1
    14    12    15    1
    15    15    16    1
    16    15    17    1
    17    17    18    1
    18    17    19    1
    19    19    20    1
    20     8    21    1
    21    21    22    1
    22    21    23    1
    23    23    24    1
    24    23     1    1
    25    19    10    1
    26     1    25    1
    27     2    26    1
    28     2    27    1
    29     3    28    1
    30     5    29    1
    31     7    30    1
    32     7    31    1
    33     7    32    1
    34     8    33    1
    35    10    34    1
    36    12    35    1
    37    13    36    1
    38    13    37    1
    39    14    38    1
    40    15    39    1
    41    16    40    1
    42    17    41    1
    43    18    42    1
    44    19    43    1
    45    20    44    1
    46    21    45    1
    47    22    46    1
    48    23    47    1
    49    24    48    1
