
     RDKit          3D

 48 49  0  0  0  0  0  0  0  0999 V2000
   -3.7454    0.0418   -0.6530 C   0  0  1  0  0  0  0  0  0  0  0  0
   -4.4826    0.7674   -1.7841 C   0  0  0  0  0  0  0  0  0  0  0  0
   -5.7792    1.0863   -1.3809 O   0  0  0  0  0  0  0  0  0  0  0  0
   -2.4743   -0.2408   -1.1153 O   0  0  0  0  0  0  0  0  0  0  0  0
   -1.5908   -0.5080   -0.0725 C   0  0  2  0  0  0  0  0  0  0  0  0
   -2.2165   -1.4595    0.7534 O   0  0  0  0  0  0  0  0  0  0  0  0
   -1.4469   -2.6274    0.7999 C   0  0  0  0  0  0  0  0  0  0  0  0
   -1.3305    0.7835    0.6582 C   0  0  1  0  0  0  0  0  0  0  0  0
    0.1467    1.6423    0.0562 S   0  0  0  0  0  0  0  0  0  0  0  0
    1.6514    0.7013    0.4194 C   0  0  1  0  0  0  0  0  0  0  0  0
    1.7562   -0.4839   -0.2408 O   0  0  0  0  0  0  0  0  0  0  0  0
    2.9080   -0.7466   -0.9120 C   0  0  2  0  0  0  0  0  0  0  0  0
    2.9355   -2.2756   -1.0813 C   0  0  0  0  0  0  0  0  0  0  0  0
    2.9209   -2.7611    0.2459 O   0  0  0  0  0  0  0  0  0  0  0  0
    4.1920   -0.4026   -0.2459 C   0  0  1  0  0  0  0  0  0  0  0  0
    5.0274    0.1506   -1.2448 O   0  0  0  0  0  0  0  0  0  0  0  0
    4.0373    0.6924    0.7840 C   0  0  2  0  0  0  0  0  0  0  0  0
    3.8605    0.1789    2.0601 O   0  0  0  0  0  0  0  0  0  0  0  0
    2.8997    1.5536    0.3279 C   0  0  2  0  0  0  0  0  0  0  0  0
    2.7657    2.7483    0.9819 O   0  0  0  0  0  0  0  0  0  0  0  0
   -2.5057    1.7279    0.6420 C   0  0  1  0  0  0  0  0  0  0  0  0
   -2.3855    2.5217   -0.4977 O   0  0  0  0  0  0  0  0  0  0  0  0
   -3.7863    0.9500    0.5339 C   0  0  2  0  0  0  0  0  0  0  0  0
   -3.9716    0.2530    1.7320 O   0  0  0  0  0  0  0  0  0  0  0  0
   -4.2625   -0.9010   -0.3915 H   0  0  0  0  0  0  0  0  0  0  0  0
   -4.5091    0.1333   -2.7030 H   0  0  0  0  0  0  0  0  0  0  0  0
   -3.9416    1.6964   -2.0293 H   0  0  0  0  0  0  0  0  0  0  0  0
   -6.1757    0.2778   -0.9510 H   0  0  0  0  0  0  0  0  0  0  0  0
   -0.6644   -0.9657   -0.4486 H   0  0  0  0  0  0  0  0  0  0  0  0
   -1.9092   -3.4024    1.4436 H   0  0  0  0  0  0  0  0  0  0  0  0
   -0.3996   -2.4092    1.0845 H   0  0  0  0  0  0  0  0  0  0  0  0
   -1.4299   -3.0439   -0.2341 H   0  0  0  0  0  0  0  0  0  0  0  0
   -1.1522    0.5438    1.7453 H   0  0  0  0  0  0  0  0  0  0  0  0
    1.5657    0.4282    1.5139 H   0  0  0  0  0  0  0  0  0  0  0  0
    2.8379   -0.3603   -1.9718 H   0  0  0  0  0  0  0  0  0  0  0  0
    2.0355   -2.6467   -1.5717 H   0  0  0  0  0  0  0  0  0  0  0  0
    3.8916   -2.6241   -1.5186 H   0  0  0  0  0  0  0  0  0  0  0  0
    3.1834   -3.7008    0.3046 H   0  0  0  0  0  0  0  0  0  0  0  0
    4.7578   -1.2666    0.1578 H   0  0  0  0  0  0  0  0  0  0  0  0
    4.9756    1.1355   -1.2534 H   0  0  0  0  0  0  0  0  0  0  0  0
    4.9702    1.3189    0.8274 H   0  0  0  0  0  0  0  0  0  0  0  0
    3.8051   -0.7876    2.1294 H   0  0  0  0  0  0  0  0  0  0  0  0
    3.0666    1.7264   -0.7688 H   0  0  0  0  0  0  0  0  0  0  0  0
    2.3198    3.4139    0.4131 H   0  0  0  0  0  0  0  0  0  0  0  0
   -2.4791    2.3547    1.5602 H   0  0  0  0  0  0  0  0  0  0  0  0
   -1.5957    2.3097   -1.0533 H   0  0  0  0  0  0  0  0  0  0  0  0
   -4.6373    1.6863    0.4558 H   0  0  0  0  0  0  0  0  0  0  0  0
   -3.6387    0.7899    2.4930 H   0  0  0  0  0  0  0  0  0  0  0  0
  1  2  1  0
  2  3  1  0
  1  4  1  0
  4  5  1  0
  5  6  1  0
  6  7  1  0
  5  8  1  0
  8  9  1  0
  9 10  1  0
 10 11  1  0
 11 12  1  0
 12 13  1  0
 13 14  1  0
 12 15  1  0
 15 16  1  0
 15 17  1  0
 17 18  1  0
 17 19  1  0
 19 20  1  0
  8 21  1  0
 21 22  1  0
 21 23  1  0
 23 24  1  0
 23  1  1  0
 19 10  1  0
  1 25  1  1
  2 26  1  0
  2 27  1  0
  3 28  1  0
  5 29  1  6
  7 30  1  0
  7 31  1  0
  7 32  1  0
  8 33  1  1
 10 34  1  1
 12 35  1  6
 13 36  1  0
 13 37  1  0
 14 38  1  0
 15 39  1  1
 16 40  1  0
 17 41  1  1
 18 42  1  0
 19 43  1  6
 20 44  1  0
 21 45  1  1
 22 46  1  0
 23 47  1  6
 24 48  1  0
M  END
$$$$
