@<TRIPOS>MOLECULE
*****
 47 49 0 0 0
SMALL
GASTEIGER

@<TRIPOS>ATOM
      1 C          -3.3523   -2.7282   -1.2063 C.3     1  UNL1       -0.0546
      2 C          -2.6685   -2.3455    0.0879 C.3     1  UNL1        0.0039
      3 C          -1.6443   -3.4460    0.3647 C.3     1  UNL1       -0.0546
      4 C          -3.6534   -2.3751    1.2371 C.3     1  UNL1       -0.0546
      5 C          -1.9542   -1.0417   -0.0231 C.ar    1  UNL1        0.0418
      6 C          -0.6513   -0.7900   -0.4042 C.ar    1  UNL1        0.0013
      7 C          -0.4060    0.5805   -0.3647 C.ar    1  UNL1        0.1486
      8 N           0.7062    1.1667   -0.6589 N.am    1  UNL1       -0.1439
      9 C           1.7793    0.3018   -1.0630 C.2     1  UNL1        0.3293
     10 O           1.9582   -0.4798   -2.0319 O.2     1  UNL1       -0.2503
     11 N           2.8141    0.4319   -0.0887 N.am    1  UNL1       -0.2678
     12 C           4.1162   -0.1645    0.0620 C.ar    1  UNL1        0.0349
     13 C           5.1775    0.5000   -0.5249 C.ar    1  UNL1       -0.0391
     14 C           6.5024    0.0575   -0.4729 C.ar    1  UNL1       -0.0416
     15 C           6.7438   -1.1257    0.2166 C.ar    1  UNL1        0.0411
     16 CL          8.3873   -1.7132    0.3049 Cl      1  UNL1       -0.0835
     17 C           5.6836   -1.7855    0.8003 C.ar    1  UNL1       -0.0416
     18 C           4.3831   -1.3468    0.7467 C.ar    1  UNL1       -0.0391
     19 N          -1.5580    1.1165    0.0361 N.ar    1  UNL1       -0.2390
     20 N          -2.4629    0.1596    0.2351 N.ar    1  UNL1       -0.2950
     21 C          -1.8315    2.4909    0.2362 C.ar    1  UNL1        0.0654
     22 C          -0.8700    3.4381    0.5116 C.ar    1  UNL1       -0.0363
     23 C          -1.2146    4.7600    0.6942 C.ar    1  UNL1       -0.0598
     24 C          -2.5238    5.1954    0.6115 C.ar    1  UNL1       -0.0616
     25 C          -3.5298    4.2917    0.3382 C.ar    1  UNL1       -0.0598
     26 C          -3.1411    2.9698    0.1608 C.ar    1  UNL1       -0.0363
     27 H          -4.0851   -3.5335   -0.9421 H       1  UNL1        0.0239
     28 H          -2.6333   -3.0474   -1.9747 H       1  UNL1        0.0239
     29 H          -3.9467   -1.8498   -1.5185 H       1  UNL1        0.0239
     30 H          -2.2434   -4.3744    0.5833 H       1  UNL1        0.0239
     31 H          -1.0428   -3.2342    1.2695 H       1  UNL1        0.0239
     32 H          -0.9933   -3.6442   -0.5146 H       1  UNL1        0.0239
     33 H          -4.3073   -3.2623    1.0631 H       1  UNL1        0.0239
     34 H          -3.0763   -2.5886    2.1802 H       1  UNL1        0.0239
     35 H          -4.2002   -1.4352    1.2807 H       1  UNL1        0.0239
     36 H           0.0667   -1.5663   -0.6912 H       1  UNL1        0.0670
     37 H           2.8855    1.0068    0.7792 H       1  UNL1        0.1564
     38 H           5.0450    1.4152   -1.0672 H       1  UNL1        0.0636
     39 H           7.3050    0.5994   -0.9411 H       1  UNL1        0.0633
     40 H           5.9020   -2.6980    1.3268 H       1  UNL1        0.0633
     41 H           3.5487   -1.8357    1.1874 H       1  UNL1        0.0636
     42 H          -3.4483    0.3158    0.5525 H       1  UNL1        0.1870
     43 H           0.1518    3.1234    0.5804 H       1  UNL1        0.0639
     44 H          -0.4294    5.4905    0.9118 H       1  UNL1        0.0618
     45 H          -2.8019    6.2393    0.7550 H       1  UNL1        0.0618
     46 H          -4.5668    4.5365    0.2557 H       1  UNL1        0.0618
     47 H          -3.9200    2.2243   -0.0585 H       1  UNL1        0.0639
@<TRIPOS>BOND
     1     1     2    1
     2     2     3    1
     3     2     4    1
     4     2     5    1
     5     5     6   ar
     6     6     7   ar
     7     7     8    2
     8     8     9    1
     9     9    10    2
    10     9    11   am
    11    11    12    1
    12    12    13   ar
    13    13    14   ar
    14    14    15   ar
    15    15    16    1
    16    15    17   ar
    17    17    18   ar
    18     7    19   ar
    19    19    20   ar
    20    19    21    1
    21    21    22   ar
    22    22    23   ar
    23    23    24   ar
    24    24    25   ar
    25    25    26   ar
    26    20     5   ar
    27    26    21   ar
    28    18    12   ar
    29     1    27    1
    30     1    28    1
    31     1    29    1
    32     3    30    1
    33     3    31    1
    34     3    32    1
    35     4    33    1
    36     4    34    1
    37     4    35    1
    38     6    36    1
    39    11    37    1
    40    13    38    1
    41    14    39    1
    42    17    40    1
    43    18    41    1
    44    20    42    1
    45    22    43    1
    46    23    44    1
    47    24    45    1
    48    25    46    1
    49    26    47    1
