
     RDKit          3D

 31 32  0  0  0  0  0  0  0  0999 V2000
   -6.1688    0.0828    0.2426 C   0  0  0  0  0  0  0  0  0  0  0  0
   -4.9309   -0.1452    0.9134 O   0  0  0  0  0  0  0  0  0  0  0  0
   -3.7657    0.0280    0.1854 C   0  0  0  0  0  0  0  0  0  0  0  0
   -3.7488    0.4049   -1.1375 C   0  0  0  0  0  0  0  0  0  0  0  0
   -2.6032    0.5742   -1.8498 C   0  0  0  0  0  0  0  0  0  0  0  0
   -1.3850    0.3683   -1.2542 C   0  0  0  0  0  0  0  0  0  0  0  0
   -1.3422   -0.0100    0.0673 C   0  0  0  0  0  0  0  0  0  0  0  0
   -0.1078   -0.2449    0.7628 C   0  0  0  0  0  0  0  0  0  0  0  0
    1.0794   -0.1180    0.1944 C   0  0  0  0  0  0  0  0  0  0  0  0
    2.2635   -0.3860    1.0109 C   0  0  0  0  0  0  0  0  0  0  0  0
    2.1343   -0.7222    2.2030 O   0  0  0  0  0  0  0  0  0  0  0  0
    3.6171   -0.2721    0.4714 C   0  0  0  0  0  0  0  0  0  0  0  0
    3.8957    0.0870   -0.8163 C   0  0  0  0  0  0  0  0  0  0  0  0
    5.1996    0.1782   -1.2712 C   0  0  0  0  0  0  0  0  0  0  0  0
    6.2553   -0.0913   -0.4362 C   0  0  0  0  0  0  0  0  0  0  0  0
    5.9706   -0.4440    0.8300 N   0  0  0  0  0  0  0  0  0  0  0  0
    4.7098   -0.5365    1.2849 C   0  0  0  0  0  0  0  0  0  0  0  0
   -2.5398   -0.1771    0.7771 C   0  0  0  0  0  0  0  0  0  0  0  0
   -7.0254   -0.0067    0.9445 H   0  0  0  0  0  0  0  0  0  0  0  0
   -6.2497   -0.6988   -0.5416 H   0  0  0  0  0  0  0  0  0  0  0  0
   -6.1475    1.1171   -0.2046 H   0  0  0  0  0  0  0  0  0  0  0  0
   -4.7454    0.5600   -1.5776 H   0  0  0  0  0  0  0  0  0  0  0  0
   -2.6991    0.8728   -2.8863 H   0  0  0  0  0  0  0  0  0  0  0  0
   -0.4858    0.5135   -1.8563 H   0  0  0  0  0  0  0  0  0  0  0  0
   -0.1472   -0.5459    1.8219 H   0  0  0  0  0  0  0  0  0  0  0  0
    1.1495    0.1744   -0.8376 H   0  0  0  0  0  0  0  0  0  0  0  0
    3.0520    0.3020   -1.4826 H   0  0  0  0  0  0  0  0  0  0  0  0
    5.3955    0.4613   -2.2842 H   0  0  0  0  0  0  0  0  0  0  0  0
    7.2855   -0.0202   -0.7921 H   0  0  0  0  0  0  0  0  0  0  0  0
    4.5849   -0.8301    2.3270 H   0  0  0  0  0  0  0  0  0  0  0  0
   -2.5002   -0.4755    1.8190 H   0  0  0  0  0  0  0  0  0  0  0  0
  1  2  1  0
  2  3  1  0
  3  4  2  0
  4  5  1  0
  5  6  2  0
  6  7  1  0
  7  8  1  0
  8  9  2  0
  9 10  1  0
 10 11  2  0
 10 12  1  0
 12 13  2  0
 13 14  1  0
 14 15  2  0
 15 16  1  0
 16 17  2  0
  7 18  2  0
 18  3  1  0
 17 12  1  0
  1 19  1  0
  1 20  1  0
  1 21  1  0
  4 22  1  0
  5 23  1  0
  6 24  1  0
  8 25  1  0
  9 26  1  0
 13 27  1  0
 14 28  1  0
 15 29  1  0
 17 30  1  0
 18 31  1  0
M  END
$$$$
