@<TRIPOS>MOLECULE
*****
 31 32 0 0 0
SMALL
GASTEIGER

@<TRIPOS>ATOM
      1 C          -6.1688    0.0828    0.2426 C.3     1  UNL1        0.0788
      2 O          -4.9309   -0.1452    0.9134 O.3     1  UNL1       -0.4951
      3 C          -3.7657    0.0280    0.1854 C.ar    1  UNL1        0.1207
      4 C          -3.7488    0.4049   -1.1375 C.ar    1  UNL1       -0.0199
      5 C          -2.6032    0.5742   -1.8498 C.ar    1  UNL1       -0.0577
      6 C          -1.3850    0.3683   -1.2542 C.ar    1  UNL1       -0.0544
      7 C          -1.3422   -0.0100    0.0673 C.ar    1  UNL1       -0.0215
      8 C          -0.1078   -0.2449    0.7628 C.2     1  UNL1       -0.0508
      9 C           1.0794   -0.1180    0.1944 C.2     1  UNL1       -0.0137
     10 C           2.2635   -0.3860    1.0109 C.2     1  UNL1        0.1875
     11 O           2.1343   -0.7222    2.2030 O.2     1  UNL1       -0.2872
     12 C           3.6171   -0.2721    0.4714 C.ar    1  UNL1        0.0397
     13 C           3.8957    0.0870   -0.8163 C.ar    1  UNL1       -0.0480
     14 C           5.1996    0.1782   -1.2712 C.ar    1  UNL1       -0.0429
     15 C           6.2553   -0.0913   -0.4362 C.ar    1  UNL1        0.0276
     16 N           5.9706   -0.4440    0.8300 N.ar    1  UNL1       -0.2626
     17 C           4.7098   -0.5365    1.2849 C.ar    1  UNL1        0.0383
     18 C          -2.5398   -0.1771    0.7771 C.ar    1  UNL1       -0.0128
     19 H          -7.0254   -0.0067    0.9445 H       1  UNL1        0.0660
     20 H          -6.2497   -0.6988   -0.5416 H       1  UNL1        0.0660
     21 H          -6.1475    1.1171   -0.2046 H       1  UNL1        0.0660
     22 H          -4.7454    0.5600   -1.5776 H       1  UNL1        0.0654
     23 H          -2.6991    0.8728   -2.8863 H       1  UNL1        0.0619
     24 H          -0.4858    0.5135   -1.8563 H       1  UNL1        0.0623
     25 H          -0.1472   -0.5459    1.8219 H       1  UNL1        0.0625
     26 H           1.1495    0.1744   -0.8376 H       1  UNL1        0.0656
     27 H           3.0520    0.3020   -1.4826 H       1  UNL1        0.0626
     28 H           5.3955    0.4613   -2.2842 H       1  UNL1        0.0633
     29 H           7.2855   -0.0202   -0.7921 H       1  UNL1        0.0829
     30 H           4.5849   -0.8301    2.3270 H       1  UNL1        0.0837
     31 H          -2.5002   -0.4755    1.8190 H       1  UNL1        0.0660
@<TRIPOS>BOND
     1     1     2    1
     2     2     3    1
     3     3     4   ar
     4     4     5   ar
     5     5     6   ar
     6     6     7   ar
     7     7     8    1
     8     8     9    2
     9     9    10    1
    10    10    11    2
    11    10    12    1
    12    12    13   ar
    13    13    14   ar
    14    14    15   ar
    15    15    16   ar
    16    16    17   ar
    17     7    18   ar
    18    18     3   ar
    19    17    12   ar
    20     1    19    1
    21     1    20    1
    22     1    21    1
    23     4    22    1
    24     5    23    1
    25     6    24    1
    26     8    25    1
    27     9    26    1
    28    13    27    1
    29    14    28    1
    30    15    29    1
    31    17    30    1
    32    18    31    1
