
     RDKit          3D

 55 58  0  0  0  0  0  0  0  0999 V2000
   -4.8353   -3.2834   -1.5878 C   0  0  0  0  0  0  0  0  0  0  0  0
   -4.2870   -2.9338   -0.2181 C   0  0  0  0  0  0  0  0  0  0  0  0
   -5.5037   -2.7105    0.6707 C   0  0  0  0  0  0  0  0  0  0  0  0
   -3.4636   -4.0313    0.3536 C   0  0  0  0  0  0  0  0  0  0  0  0
   -3.4580   -1.7029   -0.2751 C   0  0  0  0  0  0  0  0  0  0  0  0
   -2.3568   -1.4094   -0.4530 N   0  0  0  0  0  0  0  0  0  0  0  0
   -1.8637   -0.1601   -0.4485 C   0  0  0  0  0  0  0  0  0  0  0  0
   -2.7310    0.8916   -0.2116 C   0  0  0  0  0  0  0  0  0  0  0  0
   -4.3201   -0.0345    0.0073 S   0  0  0  0  0  0  0  0  0  0  0  0
   -2.5398    2.2739   -0.1427 C   0  0  0  0  0  0  0  0  0  0  0  0
   -2.7490    2.8567    1.0765 N   0  0  0  0  0  0  0  0  0  0  0  0
   -2.6003    4.1659    1.2866 C   0  0  0  0  0  0  0  0  0  0  0  0
   -2.8138    4.7883    2.5501 N   0  0  0  0  0  0  0  0  0  0  0  0
   -2.2301    5.0024    0.2967 N   0  0  0  0  0  0  0  0  0  0  0  0
   -1.9939    4.5353   -0.9613 C   0  0  0  0  0  0  0  0  0  0  0  0
   -2.1635    3.1638   -1.1258 C   0  0  0  0  0  0  0  0  0  0  0  0
   -0.4121    0.0001   -0.7068 C   0  0  0  0  0  0  0  0  0  0  0  0
    0.4646   -0.4270    0.2601 C   0  0  0  0  0  0  0  0  0  0  0  0
   -0.0381   -0.9652    1.4067 F   0  0  0  0  0  0  0  0  0  0  0  0
    1.8506   -0.3450    0.1453 C   0  0  0  0  0  0  0  0  0  0  0  0
    2.7117   -0.7966    1.1763 N   0  0  0  0  0  0  0  0  0  0  0  0
    4.2972   -1.4577    1.1969 S   0  0  0  0  0  0  0  0  0  0  0  0
    4.6116   -1.8540    2.6281 O   0  0  0  0  0  0  0  0  0  0  0  0
    4.3238   -2.7881    0.4388 O   0  0  0  0  0  0  0  0  0  0  0  0
    5.5192   -0.3884    0.5676 C   0  0  0  0  0  0  0  0  0  0  0  0
    6.0326    0.4906    1.5146 C   0  0  0  0  0  0  0  0  0  0  0  0
    5.6134    0.5358    2.8222 F   0  0  0  0  0  0  0  0  0  0  0  0
    7.0246    1.4135    1.2263 C   0  0  0  0  0  0  0  0  0  0  0  0
    7.5082    1.4440   -0.0585 C   0  0  0  0  0  0  0  0  0  0  0  0
    7.0282    0.5910   -1.0293 C   0  0  0  0  0  0  0  0  0  0  0  0
    6.0411   -0.3139   -0.7058 C   0  0  0  0  0  0  0  0  0  0  0  0
    5.4887   -1.2098   -1.5670 F   0  0  0  0  0  0  0  0  0  0  0  0
    2.2593    0.2129   -1.0457 C   0  0  0  0  0  0  0  0  0  0  0  0
    1.4553    0.6669   -2.0670 C   0  0  0  0  0  0  0  0  0  0  0  0
    0.0980    0.5446   -1.8644 C   0  0  0  0  0  0  0  0  0  0  0  0
   -5.0669   -2.3010   -2.0888 H   0  0  0  0  0  0  0  0  0  0  0  0
   -5.8039   -3.8184   -1.5387 H   0  0  0  0  0  0  0  0  0  0  0  0
   -4.1093   -3.8396   -2.2005 H   0  0  0  0  0  0  0  0  0  0  0  0
   -6.4218   -2.4821    0.0546 H   0  0  0  0  0  0  0  0  0  0  0  0
   -5.3622   -1.8161    1.3112 H   0  0  0  0  0  0  0  0  0  0  0  0
   -5.7437   -3.6270    1.2660 H   0  0  0  0  0  0  0  0  0  0  0  0
   -3.2823   -3.8569    1.4266 H   0  0  0  0  0  0  0  0  0  0  0  0
   -2.5564   -4.2017   -0.2395 H   0  0  0  0  0  0  0  0  0  0  0  0
   -4.0725   -4.9718    0.3063 H   0  0  0  0  0  0  0  0  0  0  0  0
   -3.8319    4.9008    2.6826 H   0  0  0  0  0  0  0  0  0  0  0  0
   -1.9106    4.9937    3.0625 H   0  0  0  0  0  0  0  0  0  0  0  0
   -1.6941    5.1435   -1.8077 H   0  0  0  0  0  0  0  0  0  0  0  0
   -1.9927    2.7339   -2.0999 H   0  0  0  0  0  0  0  0  0  0  0  0
    2.2312   -0.6755    2.1148 H   0  0  0  0  0  0  0  0  0  0  0  0
    7.4424    2.1073    1.9388 H   0  0  0  0  0  0  0  0  0  0  0  0
    8.2825    2.1081   -0.4388 H   0  0  0  0  0  0  0  0  0  0  0  0
    7.3513    0.5416   -2.0796 H   0  0  0  0  0  0  0  0  0  0  0  0
    3.3156    0.3263   -1.2332 H   0  0  0  0  0  0  0  0  0  0  0  0
    1.8382    1.0912   -2.9688 H   0  0  0  0  0  0  0  0  0  0  0  0
   -0.5812    0.8779   -2.6239 H   0  0  0  0  0  0  0  0  0  0  0  0
  1  2  1  0
  2  3  1  0
  2  4  1  0
  2  5  1  0
  5  6  2  0
  6  7  1  0
  7  8  2  0
  8  9  1  0
  8 10  1  0
 10 11  2  0
 11 12  1  0
 12 13  1  0
 12 14  2  0
 14 15  1  0
 15 16  2  0
  7 17  1  0
 17 18  2  0
 18 19  1  0
 18 20  1  0
 20 21  1  0
 21 22  1  0
 22 23  2  0
 22 24  2  0
 22 25  1  0
 25 26  2  0
 26 27  1  0
 26 28  1  0
 28 29  2  0
 29 30  1  0
 30 31  2  0
 31 32  1  0
 20 33  2  0
 33 34  1  0
 34 35  2  0
  9  5  1  0
 16 10  1  0
 35 17  1  0
 31 25  1  0
  1 36  1  0
  1 37  1  0
  1 38  1  0
  3 39  1  0
  3 40  1  0
  3 41  1  0
  4 42  1  0
  4 43  1  0
  4 44  1  0
 13 45  1  0
 13 46  1  0
 15 47  1  0
 16 48  1  0
 21 49  1  0
 28 50  1  0
 29 51  1  0
 30 52  1  0
 33 53  1  0
 34 54  1  0
 35 55  1  0
M  END
$$$$
