@<TRIPOS>MOLECULE
*****
 55 58 0 0 0
SMALL
GASTEIGER

@<TRIPOS>ATOM
      1 C          -4.8353   -3.2834   -1.5878 C.3     1  UNL1       -0.0541
      2 C          -4.2870   -2.9338   -0.2181 C.3     1  UNL1        0.0109
      3 C          -5.5037   -2.7105    0.6707 C.3     1  UNL1       -0.0541
      4 C          -3.4636   -4.0313    0.3536 C.3     1  UNL1       -0.0541
      5 C          -3.4580   -1.7029   -0.2751 C.ar    1  UNL1        0.0849
      6 N          -2.3568   -1.4094   -0.4530 N.ar    1  UNL1       -0.2427
      7 C          -1.8637   -0.1601   -0.4485 C.ar    1  UNL1        0.0905
      8 C          -2.7310    0.8916   -0.2116 C.ar    1  UNL1        0.0653
      9 S          -4.3201   -0.0345    0.0073 S.2     1  UNL1       -0.0694
     10 C          -2.5398    2.2739   -0.1427 C.ar    1  UNL1        0.0847
     11 N          -2.7490    2.8567    1.0765 N.ar    1  UNL1       -0.2141
     12 C          -2.6003    4.1659    1.2866 C.ar    1  UNL1        0.2131
     13 N          -2.8138    4.7883    2.5501 N.pl3   1  UNL1       -0.3275
     14 N          -2.2301    5.0024    0.2967 N.ar    1  UNL1       -0.2231
     15 C          -1.9939    4.5353   -0.9613 C.ar    1  UNL1        0.0332
     16 C          -2.1635    3.1638   -1.1258 C.ar    1  UNL1       -0.0168
     17 C          -0.4121    0.0001   -0.7068 C.ar    1  UNL1        0.0386
     18 C           0.4646   -0.4270    0.2601 C.ar    1  UNL1        0.1548
     19 F          -0.0381   -0.9652    1.4067 F       1  UNL1       -0.2028
     20 C           1.8506   -0.3450    0.1453 C.ar    1  UNL1        0.0838
     21 N           2.7117   -0.7966    1.1763 N.pl3   1  UNL1       -0.2133
     22 S           4.2972   -1.4577    1.1969 S.O2    1  UNL1        0.0779
     23 O           4.6116   -1.8540    2.6281 O.2     1  UNL1       -0.1498
     24 O           4.3238   -2.7881    0.4388 O.2     1  UNL1       -0.1498
     25 C           5.5192   -0.3884    0.5676 C.ar    1  UNL1        0.1784
     26 C           6.0326    0.4906    1.5146 C.ar    1  UNL1        0.1527
     27 F           5.6134    0.5358    2.8222 F       1  UNL1       -0.2033
     28 C           7.0246    1.4135    1.2263 C.ar    1  UNL1       -0.0243
     29 C           7.5082    1.4440   -0.0585 C.ar    1  UNL1       -0.0562
     30 C           7.0282    0.5910   -1.0293 C.ar    1  UNL1       -0.0243
     31 C           6.0411   -0.3139   -0.7058 C.ar    1  UNL1        0.1527
     32 F           5.4887   -1.2098   -1.5670 F       1  UNL1       -0.2033
     33 C           2.2593    0.2129   -1.0457 C.ar    1  UNL1       -0.0365
     34 C           1.4553    0.6669   -2.0670 C.ar    1  UNL1       -0.0592
     35 C           0.0980    0.5446   -1.8644 C.ar    1  UNL1       -0.0497
     36 H          -5.0669   -2.3010   -2.0888 H       1  UNL1        0.0239
     37 H          -5.8039   -3.8184   -1.5387 H       1  UNL1        0.0239
     38 H          -4.1093   -3.8396   -2.2005 H       1  UNL1        0.0239
     39 H          -6.4218   -2.4821    0.0546 H       1  UNL1        0.0239
     40 H          -5.3622   -1.8161    1.3112 H       1  UNL1        0.0239
     41 H          -5.7437   -3.6270    1.2660 H       1  UNL1        0.0239
     42 H          -3.2823   -3.8569    1.4266 H       1  UNL1        0.0239
     43 H          -2.5564   -4.2017   -0.2395 H       1  UNL1        0.0239
     44 H          -4.0725   -4.9718    0.3063 H       1  UNL1        0.0239
     45 H          -3.8319    4.9008    2.6826 H       1  UNL1        0.1452
     46 H          -1.9106    4.9937    3.0625 H       1  UNL1        0.1452
     47 H          -1.6941    5.1435   -1.8077 H       1  UNL1        0.0831
     48 H          -1.9927    2.7339   -2.0999 H       1  UNL1        0.0654
     49 H           2.2312   -0.6755    2.1148 H       1  UNL1        0.1738
     50 H           7.4424    2.1073    1.9388 H       1  UNL1        0.0647
     51 H           8.2825    2.1081   -0.4388 H       1  UNL1        0.0619
     52 H           7.3513    0.5416   -2.0796 H       1  UNL1        0.0647
     53 H           3.3156    0.3263   -1.2332 H       1  UNL1        0.0637
     54 H           1.8382    1.0912   -2.9688 H       1  UNL1        0.0618
     55 H          -0.5812    0.8779   -2.6239 H       1  UNL1        0.0625
@<TRIPOS>BOND
     1     1     2    1
     2     2     3    1
     3     2     4    1
     4     2     5    1
     5     5     6   ar
     6     6     7   ar
     7     7     8   ar
     8     8     9   ar
     9     8    10    1
    10    10    11   ar
    11    11    12   ar
    12    12    13    1
    13    12    14   ar
    14    14    15   ar
    15    15    16   ar
    16     7    17    1
    17    17    18   ar
    18    18    19    1
    19    18    20   ar
    20    20    21    1
    21    21    22    1
    22    22    23    2
    23    22    24    2
    24    22    25    1
    25    25    26   ar
    26    26    27    1
    27    26    28   ar
    28    28    29   ar
    29    29    30   ar
    30    30    31   ar
    31    31    32    1
    32    20    33   ar
    33    33    34   ar
    34    34    35   ar
    35     9     5   ar
    36    16    10   ar
    37    35    17   ar
    38    31    25   ar
    39     1    36    1
    40     1    37    1
    41     1    38    1
    42     3    39    1
    43     3    40    1
    44     3    41    1
    45     4    42    1
    46     4    43    1
    47     4    44    1
    48    13    45    1
    49    13    46    1
    50    15    47    1
    51    16    48    1
    52    21    49    1
    53    28    50    1
    54    29    51    1
    55    30    52    1
    56    33    53    1
    57    34    54    1
    58    35    55    1
