@<TRIPOS>MOLECULE
*****
 52 55 0 0 0
SMALL
GASTEIGER

@<TRIPOS>ATOM
      1 C           4.7183    1.5668    1.1865 C.3     1  UNL1       -0.0443
      2 C           5.3127    0.2099    0.8998 C.3     1  UNL1        0.0789
      3 S           4.9990   -0.2980   -0.7711 S.O2    1  UNL1        0.0294
      4 O           5.5143    0.7688   -1.7012 O.2     1  UNL1       -0.1582
      5 O           5.6671   -1.6006   -1.0004 O.2     1  UNL1       -0.1582
      6 N           3.2900   -0.3862   -1.0219 N.3     1  UNL1       -0.1886
      7 C           2.6560   -1.3404   -0.1796 C.3     1  UNL1        0.0605
      8 C           2.0245   -2.5062   -0.9767 C.3     1  UNL1       -0.0035
      9 C           0.6375   -2.5239   -0.4308 C.3     1  UNL1        0.0810
     10 C          -0.0311   -3.8462   -0.4079 C.3     1  UNL1       -0.0350
     11 O           0.7866   -1.9606    0.8517 O.3     1  UNL1       -0.3643
     12 C           1.4540   -0.7709    0.4747 C.3     1  UNL1        0.0962
     13 C           1.7053    0.1096    1.6619 C.3     1  UNL1       -0.0335
     14 C           0.5121   -0.1958   -0.5199 C.3     1  UNL1        0.0804
     15 C          -0.6459    0.5013    0.1411 C.2     1  UNL1        0.2329
     16 O          -0.4663    1.4426    0.9528 O.2     1  UNL1       -0.2744
     17 N          -1.8716   -0.0847   -0.3124 N.am    1  UNL1       -0.2098
     18 C          -3.1274    0.5440   -0.3210 C.ar    1  UNL1        0.0445
     19 C          -4.2670   -0.0898   -0.7782 C.ar    1  UNL1       -0.0386
     20 C          -5.5144    0.5066   -0.7972 C.ar    1  UNL1       -0.0420
     21 C          -5.6569    1.7854   -0.3478 C.ar    1  UNL1        0.0635
     22 C          -6.9478    2.4445   -0.3524 C.1     1  UNL1        0.0997
     23 N          -7.9898    2.9556   -0.3525 N.1     1  UNL1       -0.1909
     24 C          -4.5672    2.4528    0.1122 C.ar    1  UNL1        0.0739
     25 C          -4.7175    3.8512    0.6046 C.3     1  UNL1        0.4187
     26 F          -5.1982    4.6176   -0.4304 F       1  UNL1       -0.1659
     27 F          -3.4790    4.3042    1.0493 F       1  UNL1       -0.1659
     28 F          -5.6299    3.8919    1.6464 F       1  UNL1       -0.1659
     29 C          -3.3125    1.8380    0.1258 C.ar    1  UNL1       -0.0270
     30 C          -1.5546   -1.4024   -0.7421 C.2     1  UNL1        0.2329
     31 O          -2.3358   -2.3776   -0.7885 O.2     1  UNL1       -0.2744
     32 C          -0.1346   -1.4474   -1.1330 C.3     1  UNL1        0.0790
     33 H           5.5292    2.3215    1.2579 H       1  UNL1        0.0246
     34 H           4.1933    1.5363    2.1721 H       1  UNL1        0.0246
     35 H           3.9702    1.8551    0.3941 H       1  UNL1        0.0246
     36 H           6.4063    0.2270    1.1120 H       1  UNL1        0.0513
     37 H           4.8945   -0.5358    1.6244 H       1  UNL1        0.0513
     38 H           2.8784    0.5690   -0.7982 H       1  UNL1        0.1480
     39 H           3.3766   -1.8321    0.5298 H       1  UNL1        0.0506
     40 H           1.9633   -2.2204   -2.0583 H       1  UNL1        0.0310
     41 H           2.5727   -3.4404   -0.8248 H       1  UNL1        0.0310
     42 H          -0.8256   -3.8103    0.3934 H       1  UNL1        0.0258
     43 H           0.6564   -4.6641   -0.1135 H       1  UNL1        0.0258
     44 H          -0.5731   -4.0586   -1.3519 H       1  UNL1        0.0258
     45 H           1.8538    1.1303    1.3082 H       1  UNL1        0.0258
     46 H           0.8296    0.0024    2.3402 H       1  UNL1        0.0258
     47 H           2.5753   -0.2610    2.1990 H       1  UNL1        0.0258
     48 H           0.9646    0.4305   -1.2868 H       1  UNL1        0.0432
     49 H          -4.2271   -1.1010   -1.1491 H       1  UNL1        0.0637
     50 H          -6.3995   -0.0186   -1.1647 H       1  UNL1        0.0631
     51 H          -2.5093    2.4201    0.4971 H       1  UNL1        0.0642
     52 H           0.0403   -1.5097   -2.2157 H       1  UNL1        0.0431
@<TRIPOS>BOND
     1     1     2    1
     2     2     3    1
     3     3     4    2
     4     3     5    2
     5     3     6    1
     6     6     7    1
     7     7     8    1
     8     8     9    1
     9     9    10    1
    10     9    11    1
    11    11    12    1
    12    12    13    1
    13    12    14    1
    14    14    15    1
    15    15    16    2
    16    15    17   am
    17    17    18    1
    18    18    19   ar
    19    19    20   ar
    20    20    21   ar
    21    21    22    1
    22    22    23    3
    23    21    24   ar
    24    24    25    1
    25    25    26    1
    26    25    27    1
    27    25    28    1
    28    24    29   ar
    29    17    30   am
    30    30    31    2
    31    30    32    1
    32    12     7    1
    33    32    14    1
    34    32     9    1
    35    29    18   ar
    36     1    33    1
    37     1    34    1
    38     1    35    1
    39     2    36    1
    40     2    37    1
    41     6    38    1
    42     7    39    1
    43     8    40    1
    44     8    41    1
    45    10    42    1
    46    10    43    1
    47    10    44    1
    48    13    45    1
    49    13    46    1
    50    13    47    1
    51    14    48    1
    52    19    49    1
    53    20    50    1
    54    29    51    1
    55    32    52    1
