
     RDKit          3D

 52 55  0  0  0  0  0  0  0  0999 V2000
    4.7183    1.5668    1.1865 C   0  0  0  0  0  0  0  0  0  0  0  0
    5.3127    0.2099    0.8998 C   0  0  0  0  0  0  0  0  0  0  0  0
    4.9990   -0.2980   -0.7711 S   0  0  0  0  0  6  0  0  0  0  0  0
    5.5143    0.7688   -1.7012 O   0  0  0  0  0  0  0  0  0  0  0  0
    5.6671   -1.6006   -1.0004 O   0  0  0  0  0  0  0  0  0  0  0  0
    3.2900   -0.3862   -1.0219 N   0  0  0  0  0  0  0  0  0  0  0  0
    2.6560   -1.3404   -0.1796 C   0  0  2  0  0  0  0  0  0  0  0  0
    2.0245   -2.5062   -0.9767 C   0  0  0  0  0  0  0  0  0  0  0  0
    0.6375   -2.5239   -0.4308 C   0  0  1  0  0  0  0  0  0  0  0  0
   -0.0311   -3.8462   -0.4079 C   0  0  0  0  0  0  0  0  0  0  0  0
    0.7866   -1.9606    0.8517 O   0  0  0  0  0  0  0  0  0  0  0  0
    1.4540   -0.7709    0.4747 C   0  0  1  0  0  0  0  0  0  0  0  0
    1.7053    0.1096    1.6619 C   0  0  0  0  0  0  0  0  0  0  0  0
    0.5121   -0.1958   -0.5199 C   0  0  2  0  0  0  0  0  0  0  0  0
   -0.6459    0.5013    0.1411 C   0  0  0  0  0  0  0  0  0  0  0  0
   -0.4663    1.4426    0.9528 O   0  0  0  0  0  0  0  0  0  0  0  0
   -1.8716   -0.0847   -0.3124 N   0  0  0  0  0  0  0  0  0  0  0  0
   -3.1274    0.5440   -0.3210 C   0  0  0  0  0  0  0  0  0  0  0  0
   -4.2670   -0.0898   -0.7782 C   0  0  0  0  0  0  0  0  0  0  0  0
   -5.5144    0.5066   -0.7972 C   0  0  0  0  0  0  0  0  0  0  0  0
   -5.6569    1.7854   -0.3478 C   0  0  0  0  0  0  0  0  0  0  0  0
   -6.9478    2.4445   -0.3524 C   0  0  0  0  0  0  0  0  0  0  0  0
   -7.9898    2.9556   -0.3525 N   0  0  0  0  0  0  0  0  0  0  0  0
   -4.5672    2.4528    0.1122 C   0  0  0  0  0  0  0  0  0  0  0  0
   -4.7175    3.8512    0.6046 C   0  0  0  0  0  0  0  0  0  0  0  0
   -5.1982    4.6176   -0.4304 F   0  0  0  0  0  0  0  0  0  0  0  0
   -3.4790    4.3042    1.0493 F   0  0  0  0  0  0  0  0  0  0  0  0
   -5.6299    3.8919    1.6464 F   0  0  0  0  0  0  0  0  0  0  0  0
   -3.3125    1.8380    0.1258 C   0  0  0  0  0  0  0  0  0  0  0  0
   -1.5546   -1.4024   -0.7421 C   0  0  0  0  0  0  0  0  0  0  0  0
   -2.3358   -2.3776   -0.7885 O   0  0  0  0  0  0  0  0  0  0  0  0
   -0.1346   -1.4474   -1.1330 C   0  0  2  0  0  0  0  0  0  0  0  0
    5.5292    2.3215    1.2579 H   0  0  0  0  0  0  0  0  0  0  0  0
    4.1933    1.5363    2.1721 H   0  0  0  0  0  0  0  0  0  0  0  0
    3.9702    1.8551    0.3941 H   0  0  0  0  0  0  0  0  0  0  0  0
    6.4063    0.2270    1.1120 H   0  0  0  0  0  0  0  0  0  0  0  0
    4.8945   -0.5358    1.6244 H   0  0  0  0  0  0  0  0  0  0  0  0
    2.8784    0.5690   -0.7982 H   0  0  0  0  0  0  0  0  0  0  0  0
    3.3766   -1.8321    0.5298 H   0  0  0  0  0  0  0  0  0  0  0  0
    1.9633   -2.2204   -2.0583 H   0  0  0  0  0  0  0  0  0  0  0  0
    2.5727   -3.4404   -0.8248 H   0  0  0  0  0  0  0  0  0  0  0  0
   -0.8256   -3.8103    0.3934 H   0  0  0  0  0  0  0  0  0  0  0  0
    0.6564   -4.6641   -0.1135 H   0  0  0  0  0  0  0  0  0  0  0  0
   -0.5731   -4.0586   -1.3519 H   0  0  0  0  0  0  0  0  0  0  0  0
    1.8538    1.1303    1.3082 H   0  0  0  0  0  0  0  0  0  0  0  0
    0.8296    0.0024    2.3402 H   0  0  0  0  0  0  0  0  0  0  0  0
    2.5753   -0.2610    2.1990 H   0  0  0  0  0  0  0  0  0  0  0  0
    0.9646    0.4305   -1.2868 H   0  0  0  0  0  0  0  0  0  0  0  0
   -4.2271   -1.1010   -1.1491 H   0  0  0  0  0  0  0  0  0  0  0  0
   -6.3995   -0.0186   -1.1647 H   0  0  0  0  0  0  0  0  0  0  0  0
   -2.5093    2.4201    0.4971 H   0  0  0  0  0  0  0  0  0  0  0  0
    0.0403   -1.5097   -2.2157 H   0  0  0  0  0  0  0  0  0  0  0  0
  1  2  1  0
  2  3  1  0
  3  4  2  0
  3  5  2  0
  3  6  1  0
  6  7  1  0
  7  8  1  0
  8  9  1  0
  9 10  1  1
  9 11  1  0
 11 12  1  0
 12 13  1  1
 12 14  1  0
 14 15  1  0
 15 16  2  0
 15 17  1  0
 17 18  1  0
 18 19  2  0
 19 20  1  0
 20 21  2  0
 21 22  1  0
 22 23  3  0
 21 24  1  0
 24 25  1  0
 25 26  1  0
 25 27  1  0
 25 28  1  0
 24 29  2  0
 17 30  1  0
 30 31  2  0
 30 32  1  0
 12  7  1  0
 32 14  1  0
 32  9  1  0
 29 18  1  0
  1 33  1  0
  1 34  1  0
  1 35  1  0
  2 36  1  0
  2 37  1  0
  6 38  1  0
  7 39  1  1
  8 40  1  0
  8 41  1  0
 10 42  1  0
 10 43  1  0
 10 44  1  0
 13 45  1  0
 13 46  1  0
 13 47  1  0
 14 48  1  6
 19 49  1  0
 20 50  1  0
 29 51  1  0
 32 52  1  6
M  END
$$$$
