@<TRIPOS>MOLECULE
*****
 43 46 0 0 0
SMALL
GASTEIGER

@<TRIPOS>ATOM
      1 C           7.4634   -0.4833   -0.7282 C.3     1  UNL1        0.0163
      2 S           6.7436   -0.0454    0.8769 S.O     1  UNL1        0.0507
      3 O           7.2386    1.3132    1.3353 O.2     1  UNL1       -0.2524
      4 C           4.9928   -0.0022    0.6851 C.ar    1  UNL1        0.0386
      5 C           4.3535    1.1718    0.3044 C.ar    1  UNL1       -0.0453
      6 C           2.9702    1.1889    0.1585 C.ar    1  UNL1       -0.0500
      7 C           2.1863    0.0789    0.3771 C.ar    1  UNL1        0.0173
      8 C           0.7401    0.1408    0.2141 C.ar    1  UNL1        0.1393
      9 N          -0.0011    1.1889   -0.1510 N.ar    1  UNL1       -0.2271
     10 C          -1.2928    0.7761   -0.1692 C.ar    1  UNL1        0.0972
     11 C          -2.3765    1.6717   -0.5296 C.ar    1  UNL1        0.0053
     12 C          -3.1489    1.4395   -1.6582 C.ar    1  UNL1       -0.0343
     13 C          -4.1717    2.2871   -1.9917 C.ar    1  UNL1        0.0282
     14 N          -4.4464    3.3550   -1.2382 N.ar    1  UNL1       -0.2632
     15 C          -3.7049    3.5910   -0.1421 C.ar    1  UNL1        0.0282
     16 C          -2.6798    2.7814    0.2330 C.ar    1  UNL1       -0.0343
     17 C          -1.3540   -0.5476    0.1899 C.ar    1  UNL1        0.0743
     18 C          -2.6074   -1.3080    0.2731 C.ar    1  UNL1        0.0006
     19 C          -3.5822   -0.9142    1.1721 C.ar    1  UNL1       -0.0499
     20 C          -4.7504   -1.6357    1.2414 C.ar    1  UNL1       -0.0258
     21 C          -4.9729   -2.7428    0.4350 C.ar    1  UNL1        0.1234
     22 F          -6.1062   -3.4665    0.4825 F       1  UNL1       -0.2055
     23 C          -3.9983   -3.1408   -0.4677 C.ar    1  UNL1       -0.0258
     24 C          -2.8418   -2.4065   -0.5188 C.ar    1  UNL1       -0.0499
     25 N          -0.0884   -0.9264    0.4238 N.ar    1  UNL1       -0.3374
     26 C           2.8323   -1.0757    0.7532 C.ar    1  UNL1       -0.0500
     27 C           4.2057   -1.1187    0.9048 C.ar    1  UNL1       -0.0453
     28 H           6.7454   -1.0083   -1.3529 H       1  UNL1        0.0368
     29 H           7.7250    0.4807   -1.2336 H       1  UNL1        0.0368
     30 H           8.4055   -0.9902   -0.5268 H       1  UNL1        0.0368
     31 H           4.9111    2.0822    0.1171 H       1  UNL1        0.0629
     32 H           2.4676    2.1115   -0.1402 H       1  UNL1        0.0625
     33 H          -2.9585    0.5860   -2.2946 H       1  UNL1        0.0639
     34 H          -4.7488    2.0731   -2.8747 H       1  UNL1        0.0830
     35 H          -3.9665    4.4725    0.4424 H       1  UNL1        0.0830
     36 H          -2.1131    3.0058    1.1139 H       1  UNL1        0.0639
     37 H          -3.3952   -0.0407    1.8004 H       1  UNL1        0.0625
     38 H          -5.5269   -1.3294    1.9509 H       1  UNL1        0.0646
     39 H          -4.1642   -4.0170   -1.1126 H       1  UNL1        0.0646
     40 H          -2.0423   -2.6711   -1.2072 H       1  UNL1        0.0625
     41 H           0.1597   -1.8930    0.7163 H       1  UNL1        0.1674
     42 H           2.2527   -1.9666    0.9328 H       1  UNL1        0.0625
     43 H           4.6457   -2.0662    1.2034 H       1  UNL1        0.0629
@<TRIPOS>BOND
     1     1     2    1
     2     2     3    2
     3     2     4    1
     4     4     5   ar
     5     5     6   ar
     6     6     7   ar
     7     7     8    1
     8     8     9   ar
     9     9    10   ar
    10    10    11    1
    11    11    12   ar
    12    12    13   ar
    13    13    14   ar
    14    14    15   ar
    15    15    16   ar
    16    10    17   ar
    17    17    18    1
    18    18    19   ar
    19    19    20   ar
    20    20    21   ar
    21    21    22    1
    22    21    23   ar
    23    23    24   ar
    24    17    25   ar
    25     7    26   ar
    26    26    27   ar
    27    27     4   ar
    28    25     8   ar
    29    16    11   ar
    30    24    18   ar
    31     1    28    1
    32     1    29    1
    33     1    30    1
    34     5    31    1
    35     6    32    1
    36    12    33    1
    37    13    34    1
    38    15    35    1
    39    16    36    1
    40    19    37    1
    41    20    38    1
    42    23    39    1
    43    24    40    1
    44    25    41    1
    45    26    42    1
    46    27    43    1
