
     RDKit          3D

 43 46  0  0  0  0  0  0  0  0999 V2000
    7.4634   -0.4833   -0.7282 C   0  0  0  0  0  0  0  0  0  0  0  0
    6.7436   -0.0454    0.8769 S   0  0  0  0  0  4  0  0  0  0  0  0
    7.2386    1.3132    1.3353 O   0  0  0  0  0  0  0  0  0  0  0  0
    4.9928   -0.0022    0.6851 C   0  0  0  0  0  0  0  0  0  0  0  0
    4.3535    1.1718    0.3044 C   0  0  0  0  0  0  0  0  0  0  0  0
    2.9702    1.1889    0.1585 C   0  0  0  0  0  0  0  0  0  0  0  0
    2.1863    0.0789    0.3771 C   0  0  0  0  0  0  0  0  0  0  0  0
    0.7401    0.1408    0.2141 C   0  0  0  0  0  0  0  0  0  0  0  0
   -0.0011    1.1889   -0.1510 N   0  0  0  0  0  0  0  0  0  0  0  0
   -1.2928    0.7761   -0.1692 C   0  0  0  0  0  0  0  0  0  0  0  0
   -2.3765    1.6717   -0.5296 C   0  0  0  0  0  0  0  0  0  0  0  0
   -3.1489    1.4395   -1.6582 C   0  0  0  0  0  0  0  0  0  0  0  0
   -4.1717    2.2871   -1.9917 C   0  0  0  0  0  0  0  0  0  0  0  0
   -4.4464    3.3550   -1.2382 N   0  0  0  0  0  0  0  0  0  0  0  0
   -3.7049    3.5910   -0.1421 C   0  0  0  0  0  0  0  0  0  0  0  0
   -2.6798    2.7814    0.2330 C   0  0  0  0  0  0  0  0  0  0  0  0
   -1.3540   -0.5476    0.1899 C   0  0  0  0  0  0  0  0  0  0  0  0
   -2.6074   -1.3080    0.2731 C   0  0  0  0  0  0  0  0  0  0  0  0
   -3.5822   -0.9142    1.1721 C   0  0  0  0  0  0  0  0  0  0  0  0
   -4.7504   -1.6357    1.2414 C   0  0  0  0  0  0  0  0  0  0  0  0
   -4.9729   -2.7428    0.4350 C   0  0  0  0  0  0  0  0  0  0  0  0
   -6.1062   -3.4665    0.4825 F   0  0  0  0  0  0  0  0  0  0  0  0
   -3.9983   -3.1408   -0.4677 C   0  0  0  0  0  0  0  0  0  0  0  0
   -2.8418   -2.4065   -0.5188 C   0  0  0  0  0  0  0  0  0  0  0  0
   -0.0884   -0.9264    0.4238 N   0  0  0  0  0  0  0  0  0  0  0  0
    2.8323   -1.0757    0.7532 C   0  0  0  0  0  0  0  0  0  0  0  0
    4.2057   -1.1187    0.9048 C   0  0  0  0  0  0  0  0  0  0  0  0
    6.7454   -1.0083   -1.3529 H   0  0  0  0  0  0  0  0  0  0  0  0
    7.7250    0.4807   -1.2336 H   0  0  0  0  0  0  0  0  0  0  0  0
    8.4055   -0.9902   -0.5268 H   0  0  0  0  0  0  0  0  0  0  0  0
    4.9111    2.0822    0.1171 H   0  0  0  0  0  0  0  0  0  0  0  0
    2.4676    2.1115   -0.1402 H   0  0  0  0  0  0  0  0  0  0  0  0
   -2.9585    0.5860   -2.2946 H   0  0  0  0  0  0  0  0  0  0  0  0
   -4.7488    2.0731   -2.8747 H   0  0  0  0  0  0  0  0  0  0  0  0
   -3.9665    4.4725    0.4424 H   0  0  0  0  0  0  0  0  0  0  0  0
   -2.1131    3.0058    1.1139 H   0  0  0  0  0  0  0  0  0  0  0  0
   -3.3952   -0.0407    1.8004 H   0  0  0  0  0  0  0  0  0  0  0  0
   -5.5269   -1.3294    1.9509 H   0  0  0  0  0  0  0  0  0  0  0  0
   -4.1642   -4.0170   -1.1126 H   0  0  0  0  0  0  0  0  0  0  0  0
   -2.0423   -2.6711   -1.2072 H   0  0  0  0  0  0  0  0  0  0  0  0
    0.1597   -1.8930    0.7163 H   0  0  0  0  0  0  0  0  0  0  0  0
    2.2527   -1.9666    0.9328 H   0  0  0  0  0  0  0  0  0  0  0  0
    4.6457   -2.0662    1.2034 H   0  0  0  0  0  0  0  0  0  0  0  0
  1  2  1  0
  2  3  2  0
  2  4  1  0
  4  5  2  0
  5  6  1  0
  6  7  2  0
  7  8  1  0
  8  9  2  0
  9 10  1  0
 10 11  1  0
 11 12  2  0
 12 13  1  0
 13 14  2  0
 14 15  1  0
 15 16  2  0
 10 17  2  0
 17 18  1  0
 18 19  2  0
 19 20  1  0
 20 21  2  0
 21 22  1  0
 21 23  1  0
 23 24  2  0
 17 25  1  0
  7 26  1  0
 26 27  2  0
 27  4  1  0
 25  8  1  0
 16 11  1  0
 24 18  1  0
  1 28  1  0
  1 29  1  0
  1 30  1  0
  5 31  1  0
  6 32  1  0
 12 33  1  0
 13 34  1  0
 15 35  1  0
 16 36  1  0
 19 37  1  0
 20 38  1  0
 23 39  1  0
 24 40  1  0
 25 41  1  0
 26 42  1  0
 27 43  1  0
M  END
$$$$
