
     RDKit          3D

 61 65  0  0  0  0  0  0  0  0999 V2000
   -7.7282    0.4628    0.9008 C   0  0  0  0  0  0  0  0  0  0  0  0
   -7.3443   -0.9122    0.8965 N   0  0  0  0  0  0  0  0  0  0  0  0
   -8.2477   -1.8598    1.5843 C   0  0  0  0  0  0  0  0  0  0  0  0
   -6.1645   -1.3585    0.2441 C   0  0  0  0  0  0  0  0  0  0  0  0
   -5.9656   -2.6287    0.3499 O   0  0  0  0  0  0  0  0  0  0  0  0
   -5.2173   -0.5222   -0.5012 C   0  0  2  0  0  0  0  0  0  0  0  0
   -4.1027   -1.1524   -1.2486 C   0  0  0  0  0  0  0  0  0  0  0  0
   -3.8688   -0.3548    0.0184 C   0  0  1  0  0  0  0  0  0  0  0  0
   -3.2069    0.9010   -0.0390 C   0  0  1  0  0  0  0  0  0  0  0  0
   -2.4374    1.0257    1.3679 C   0  0  0  0  0  0  0  0  0  0  0  0
   -2.0102    0.9150   -1.0064 C   0  0  0  0  0  0  0  0  0  0  0  0
   -0.8348    0.4275   -0.4972 C   0  0  0  0  0  0  0  0  0  0  0  0
    0.2559    0.2966   -1.3830 C   0  0  0  0  0  0  0  0  0  0  0  0
    1.5585   -0.1113   -0.7814 C   0  0  0  0  0  0  0  0  0  0  0  0
    2.6841    0.2790   -1.1660 C   0  0  0  0  0  0  0  0  0  0  0  0
    2.6964    1.1754   -2.2862 F   0  0  0  0  0  0  0  0  0  0  0  0
    4.0082    0.0297   -0.6021 C   0  0  0  0  0  0  0  0  0  0  0  0
    5.0978    0.3560   -1.3599 C   0  0  0  0  0  0  0  0  0  0  0  0
    6.3989    0.2389   -0.9362 C   0  0  0  0  0  0  0  0  0  0  0  0
    6.5481   -0.2529    0.3560 C   0  0  0  0  0  0  0  0  0  0  0  0
    7.9950   -0.3383    0.7963 C   0  0  0  0  0  0  0  0  0  0  0  0
    9.1549   -0.4179    1.1652 C   0  0  0  0  0  0  0  0  0  0  0  0
   10.4829   -0.4936    1.5743 C   0  0  0  0  0  0  0  0  0  0  0  0
   11.2982   -1.7127    1.2748 C   0  0  0  0  0  0  0  0  0  0  0  0
   10.9600   -1.4308    2.6940 C   0  0  0  0  0  0  0  0  0  0  0  0
    5.5127   -0.5858    1.1245 C   0  0  0  0  0  0  0  0  0  0  0  0
    4.2192   -0.4513    0.6613 N   0  0  0  0  0  0  0  0  0  0  0  0
    0.0840    0.6425   -2.6576 C   0  0  0  0  0  0  0  0  0  0  0  0
   -1.0842    1.1341   -3.2134 C   0  0  0  0  0  0  0  0  0  0  0  0
   -2.1854    1.2581   -2.2556 C   0  0  0  0  0  0  0  0  0  0  0  0
   -3.3081    1.7967   -2.7496 F   0  0  0  0  0  0  0  0  0  0  0  0
   -3.8709    2.1186   -0.0703 N   0  0  0  0  0  0  0  0  0  0  0  0
   -5.0245    2.3538   -0.6004 C   0  0  0  0  0  0  0  0  0  0  0  0
   -5.6257    3.6633   -0.5898 N   0  0  0  0  0  0  0  0  0  0  0  0
   -5.9617    0.9902   -1.2256 S   0  0  0  0  0  0  0  0  0  0  0  0
   -8.5864    0.6072    1.6344 H   0  0  0  0  0  0  0  0  0  0  0  0
   -8.1406    0.7114   -0.1273 H   0  0  0  0  0  0  0  0  0  0  0  0
   -6.9057    1.1183    1.2147 H   0  0  0  0  0  0  0  0  0  0  0  0
   -7.9288   -2.0165    2.6159 H   0  0  0  0  0  0  0  0  0  0  0  0
   -9.2474   -1.4625    1.5562 H   0  0  0  0  0  0  0  0  0  0  0  0
   -8.2257   -2.8226    0.9961 H   0  0  0  0  0  0  0  0  0  0  0  0
   -3.9260   -0.6920   -2.2348 H   0  0  0  0  0  0  0  0  0  0  0  0
   -4.0514   -2.2351   -1.2739 H   0  0  0  0  0  0  0  0  0  0  0  0
   -3.6174   -1.0504    0.8731 H   0  0  0  0  0  0  0  0  0  0  0  0
   -1.6139    1.7392    1.2518 H   0  0  0  0  0  0  0  0  0  0  0  0
   -3.1894    1.4108    2.0844 H   0  0  0  0  0  0  0  0  0  0  0  0
   -2.1784    0.0038    1.6932 H   0  0  0  0  0  0  0  0  0  0  0  0
   -0.6459    0.1315    0.5113 H   0  0  0  0  0  0  0  0  0  0  0  0
    1.5066   -0.7879    0.1098 H   0  0  0  0  0  0  0  0  0  0  0  0
    4.9485    0.6916   -2.3888 H   0  0  0  0  0  0  0  0  0  0  0  0
    7.2269    0.5077   -1.5815 H   0  0  0  0  0  0  0  0  0  0  0  0
   11.0546    0.5113    1.5659 H   0  0  0  0  0  0  0  0  0  0  0  0
   12.3837   -1.6020    1.0296 H   0  0  0  0  0  0  0  0  0  0  0  0
   10.7330   -2.3728    0.5878 H   0  0  0  0  0  0  0  0  0  0  0  0
   11.7509   -0.8860    3.3492 H   0  0  0  0  0  0  0  0  0  0  0  0
   10.2481   -2.0580    3.2239 H   0  0  0  0  0  0  0  0  0  0  0  0
    5.6815   -1.0283    2.1141 H   0  0  0  0  0  0  0  0  0  0  0  0
    0.9291    0.4796   -3.3475 H   0  0  0  0  0  0  0  0  0  0  0  0
   -1.2483    1.4583   -4.1907 H   0  0  0  0  0  0  0  0  0  0  0  0
   -6.3255    3.8638    0.1611 H   0  0  0  0  0  0  0  0  0  0  0  0
   -5.3980    4.4029   -1.2672 H   0  0  0  0  0  0  0  0  0  0  0  0
  1  2  1  0
  2  3  1  0
  2  4  1  0
  4  5  2  0
  6  4  1  1
  6  7  1  0
  7  8  1  0
  8  9  1  0
  9 10  1  1
  9 11  1  0
 11 12  2  0
 12 13  1  0
 13 14  1  0
 14 15  2  0
 15 16  1  0
 15 17  1  0
 17 18  2  0
 18 19  1  0
 19 20  2  0
 20 21  1  0
 21 22  3  0
 22 23  1  0
 23 24  1  0
 24 25  1  0
 20 26  1  0
 26 27  2  0
 13 28  2  0
 28 29  1  0
 29 30  2  0
 30 31  1  0
  9 32  1  0
 32 33  2  0
 33 34  1  0
 33 35  1  0
  8  6  1  0
 30 11  1  0
 35  6  1  0
 27 17  1  0
 25 23  1  0
  1 36  1  0
  1 37  1  0
  1 38  1  0
  3 39  1  0
  3 40  1  0
  3 41  1  0
  7 42  1  0
  7 43  1  0
  8 44  1  1
 10 45  1  0
 10 46  1  0
 10 47  1  0
 12 48  1  0
 14 49  1  0
 18 50  1  0
 19 51  1  0
 23 52  1  0
 24 53  1  0
 24 54  1  0
 25 55  1  0
 25 56  1  0
 26 57  1  0
 28 58  1  0
 29 59  1  0
 34 60  1  0
 34 61  1  0
M  END
$$$$
