@<TRIPOS>MOLECULE
*****
 61 65 0 0 0
SMALL
GASTEIGER

@<TRIPOS>ATOM
      1 C          -7.7282    0.4628    0.9008 C.3     1  UNL1        0.0029
      2 N          -7.3443   -0.9122    0.8965 N.am    1  UNL1       -0.3064
      3 C          -8.2477   -1.8598    1.5843 C.3     1  UNL1        0.0029
      4 C          -6.1645   -1.3585    0.2441 C.2     1  UNL1        0.2319
      5 O          -5.9656   -2.6287    0.3499 O.2     1  UNL1       -0.2741
      6 C          -5.2173   -0.5222   -0.5012 C.3     1  UNL1        0.1054
      7 C          -4.1027   -1.1524   -1.2486 C.3     1  UNL1       -0.0220
      8 C          -3.8688   -0.3548    0.0184 C.3     1  UNL1        0.0134
      9 C          -3.2069    0.9010   -0.0390 C.3     1  UNL1        0.0935
     10 C          -2.4374    1.0257    1.3679 C.3     1  UNL1       -0.0351
     11 C          -2.0102    0.9150   -1.0064 C.ar    1  UNL1        0.0158
     12 C          -0.8348    0.4275   -0.4972 C.ar    1  UNL1       -0.0463
     13 C           0.2559    0.2966   -1.3830 C.ar    1  UNL1       -0.0217
     14 C           1.5585   -0.1113   -0.7814 C.2     1  UNL1       -0.0172
     15 C           2.6841    0.2790   -1.1660 C.2     1  UNL1        0.1492
     16 F           2.6964    1.1754   -2.2862 F       1  UNL1       -0.2032
     17 C           4.0082    0.0297   -0.6021 C.ar    1  UNL1        0.0990
     18 C           5.0978    0.3560   -1.3599 C.ar    1  UNL1       -0.0323
     19 C           6.3989    0.2389   -0.9362 C.ar    1  UNL1       -0.0428
     20 C           6.5481   -0.2529    0.3560 C.ar    1  UNL1        0.0430
     21 C           7.9950   -0.3383    0.7963 C.1     1  UNL1       -0.0645
     22 C           9.1549   -0.4179    1.1652 C.1     1  UNL1       -0.0936
     23 C          10.4829   -0.4936    1.5743 C.3     1  UNL1        0.0211
     24 C          11.2982   -1.7127    1.2748 C.3     1  UNL1       -0.0382
     25 C          10.9600   -1.4308    2.6940 C.3     1  UNL1       -0.0382
     26 C           5.5127   -0.5858    1.1245 C.ar    1  UNL1        0.0437
     27 N           4.2192   -0.4513    0.6613 N.ar    1  UNL1       -0.2515
     28 C           0.0840    0.6425   -2.6576 C.ar    1  UNL1       -0.0518
     29 C          -1.0842    1.1341   -3.2134 C.ar    1  UNL1       -0.0255
     30 C          -2.1854    1.2581   -2.2556 C.ar    1  UNL1        0.1289
     31 F          -3.3081    1.7967   -2.7496 F       1  UNL1       -0.2051
     32 N          -3.8709    2.1186   -0.0703 N.2     1  UNL1       -0.2521
     33 C          -5.0245    2.3538   -0.6004 C.2     1  UNL1        0.1485
     34 N          -5.6257    3.6633   -0.5898 N.pl3   1  UNL1       -0.3380
     35 S          -5.9617    0.9902   -1.2256 S.3     1  UNL1       -0.0746
     36 H          -8.5864    0.6072    1.6344 H       1  UNL1        0.0428
     37 H          -8.1406    0.7114   -0.1273 H       1  UNL1        0.0428
     38 H          -6.9057    1.1183    1.2147 H       1  UNL1        0.0428
     39 H          -7.9288   -2.0165    2.6159 H       1  UNL1        0.0428
     40 H          -9.2474   -1.4625    1.5562 H       1  UNL1        0.0428
     41 H          -8.2257   -2.8226    0.9961 H       1  UNL1        0.0428
     42 H          -3.9260   -0.6920   -2.2348 H       1  UNL1        0.0287
     43 H          -4.0514   -2.2351   -1.2739 H       1  UNL1        0.0287
     44 H          -3.6174   -1.0504    0.8731 H       1  UNL1        0.0346
     45 H          -1.6139    1.7392    1.2518 H       1  UNL1        0.0256
     46 H          -3.1894    1.4108    2.0844 H       1  UNL1        0.0256
     47 H          -2.1784    0.0038    1.6932 H       1  UNL1        0.0256
     48 H          -0.6459    0.1315    0.5113 H       1  UNL1        0.0628
     49 H           1.5066   -0.7879    0.1098 H       1  UNL1        0.0653
     50 H           4.9485    0.6916   -2.3888 H       1  UNL1        0.0640
     51 H           7.2269    0.5077   -1.5815 H       1  UNL1        0.0631
     52 H          11.0546    0.5113    1.5659 H       1  UNL1        0.0433
     53 H          12.3837   -1.6020    1.0296 H       1  UNL1        0.0277
     54 H          10.7330   -2.3728    0.5878 H       1  UNL1        0.0277
     55 H          11.7509   -0.8860    3.3492 H       1  UNL1        0.0277
     56 H          10.2481   -2.0580    3.2239 H       1  UNL1        0.0277
     57 H           5.6815   -1.0283    2.1141 H       1  UNL1        0.0842
     58 H           0.9291    0.4796   -3.3475 H       1  UNL1        0.0624
     59 H          -1.2483    1.4583   -4.1907 H       1  UNL1        0.0646
     60 H          -6.3255    3.8638    0.1611 H       1  UNL1        0.1442
     61 H          -5.3980    4.4029   -1.2672 H       1  UNL1        0.1442
@<TRIPOS>BOND
     1     1     2    1
     2     2     3    1
     3     2     4   am
     4     4     5    2
     5     6     4    1
     6     6     7    1
     7     7     8    1
     8     8     9    1
     9     9    10    1
    10     9    11    1
    11    11    12   ar
    12    12    13   ar
    13    13    14    1
    14    14    15    2
    15    15    16    1
    16    15    17    1
    17    17    18   ar
    18    18    19   ar
    19    19    20   ar
    20    20    21    1
    21    21    22    3
    22    22    23    1
    23    23    24    1
    24    24    25    1
    25    20    26   ar
    26    26    27   ar
    27    13    28   ar
    28    28    29   ar
    29    29    30   ar
    30    30    31    1
    31     9    32    1
    32    32    33    2
    33    33    34    1
    34    33    35    1
    35     8     6    1
    36    30    11   ar
    37    35     6    1
    38    27    17   ar
    39    25    23    1
    40     1    36    1
    41     1    37    1
    42     1    38    1
    43     3    39    1
    44     3    40    1
    45     3    41    1
    46     7    42    1
    47     7    43    1
    48     8    44    1
    49    10    45    1
    50    10    46    1
    51    10    47    1
    52    12    48    1
    53    14    49    1
    54    18    50    1
    55    19    51    1
    56    23    52    1
    57    24    53    1
    58    24    54    1
    59    25    55    1
    60    25    56    1
    61    26    57    1
    62    28    58    1
    63    29    59    1
    64    34    60    1
    65    34    61    1
