
     RDKit          3D

 47 49  0  0  0  0  0  0  0  0999 V2000
   -2.0182   -2.5797    0.5463 C   0  0  0  0  0  0  0  0  0  0  0  0
   -2.5278   -1.2536    0.6820 N   0  0  0  0  0  0  0  0  0  0  0  0
   -3.9930   -1.1608    0.8575 C   0  0  0  0  0  0  0  0  0  0  0  0
   -4.6713   -1.0484   -0.4879 C   0  0  0  0  0  0  0  0  0  0  0  0
   -6.0411   -0.9652   -0.2504 O   0  0  0  0  0  0  0  0  0  0  0  0
   -1.8302   -0.0411    0.6718 C   0  0  0  0  0  0  0  0  0  0  0  0
   -2.5293    1.0366    0.8088 O   0  0  0  0  0  0  0  0  0  0  0  0
   -0.4429    0.0891    0.5254 N   0  0  0  0  0  0  0  0  0  0  0  0
    0.5409   -0.9179    0.3658 C   0  0  0  0  0  0  0  0  0  0  0  0
    1.8318   -0.2860    0.7121 C   0  0  0  0  0  0  0  0  0  0  0  0
    3.0812   -1.0379    0.9204 C   0  0  0  0  0  0  0  0  0  0  0  0
    3.0849   -2.4293    0.7918 C   0  0  0  0  0  0  0  0  0  0  0  0
    4.2163   -3.1810    0.9738 C   0  0  0  0  0  0  0  0  0  0  0  0
    4.1567   -4.5344    0.8346 F   0  0  0  0  0  0  0  0  0  0  0  0
    5.3906   -2.5669    1.2924 C   0  0  0  0  0  0  0  0  0  0  0  0
    5.4396   -1.2020    1.4303 C   0  0  0  0  0  0  0  0  0  0  0  0
    4.2677   -0.4547    1.2389 C   0  0  0  0  0  0  0  0  0  0  0  0
    4.3707    0.8793    1.3860 F   0  0  0  0  0  0  0  0  0  0  0  0
    1.6518    1.0048    0.7922 C   0  0  0  0  0  0  0  0  0  0  0  0
    0.2398    1.3700    0.5124 C   0  0  1  0  0  0  0  0  0  0  0  0
    0.0606    2.1335   -0.7363 C   0  0  0  0  0  0  0  0  0  0  0  0
    0.1831    1.5375   -1.9691 C   0  0  0  0  0  0  0  0  0  0  0  0
    0.0058    2.2924   -3.1364 C   0  0  0  0  0  0  0  0  0  0  0  0
   -0.2923    3.6347   -3.0764 C   0  0  0  0  0  0  0  0  0  0  0  0
   -0.4154    4.2330   -1.8506 C   0  0  0  0  0  0  0  0  0  0  0  0
   -0.7178    5.5950   -1.7922 O   0  0  0  0  0  0  0  0  0  0  0  0
   -0.2399    3.4857   -0.7060 C   0  0  0  0  0  0  0  0  0  0  0  0
   -1.2747   -2.7416   -0.2417 H   0  0  0  0  0  0  0  0  0  0  0  0
   -1.5894   -2.9803    1.5016 H   0  0  0  0  0  0  0  0  0  0  0  0
   -2.8583   -3.3205    0.3202 H   0  0  0  0  0  0  0  0  0  0  0  0
   -4.3601   -2.0624    1.3526 H   0  0  0  0  0  0  0  0  0  0  0  0
   -4.2338   -0.2657    1.4501 H   0  0  0  0  0  0  0  0  0  0  0  0
   -4.3776   -0.1244   -1.0298 H   0  0  0  0  0  0  0  0  0  0  0  0
   -4.4990   -1.9555   -1.1039 H   0  0  0  0  0  0  0  0  0  0  0  0
   -6.2410   -0.6230    0.6683 H   0  0  0  0  0  0  0  0  0  0  0  0
    0.5762   -1.3825   -0.6477 H   0  0  0  0  0  0  0  0  0  0  0  0
    0.3461   -1.7117    1.1416 H   0  0  0  0  0  0  0  0  0  0  0  0
    2.1302   -2.8805    0.5372 H   0  0  0  0  0  0  0  0  0  0  0  0
    6.3136   -3.1242    1.4461 H   0  0  0  0  0  0  0  0  0  0  0  0
    6.3536   -0.6780    1.6826 H   0  0  0  0  0  0  0  0  0  0  0  0
    2.3896    1.7911    1.0292 H   0  0  0  0  0  0  0  0  0  0  0  0
   -0.1834    1.9484    1.3709 H   0  0  0  0  0  0  0  0  0  0  0  0
    0.4129    0.5027   -2.0849 H   0  0  0  0  0  0  0  0  0  0  0  0
    0.0974    1.8447   -4.1141 H   0  0  0  0  0  0  0  0  0  0  0  0
   -0.4334    4.2366   -3.9685 H   0  0  0  0  0  0  0  0  0  0  0  0
   -1.0382    5.9558   -0.9024 H   0  0  0  0  0  0  0  0  0  0  0  0
   -0.3328    3.9383    0.2553 H   0  0  0  0  0  0  0  0  0  0  0  0
  1  2  1  0
  2  3  1  0
  3  4  1  0
  4  5  1  0
  2  6  1  0
  6  7  2  0
  6  8  1  0
  8  9  1  0
  9 10  1  0
 10 11  1  0
 11 12  2  0
 12 13  1  0
 13 14  1  0
 13 15  2  0
 15 16  1  0
 16 17  2  0
 17 18  1  0
 10 19  2  0
 19 20  1  0
 20 21  1  0
 21 22  2  0
 22 23  1  0
 23 24  2  0
 24 25  1  0
 25 26  1  0
 25 27  2  0
 20  8  1  0
 27 21  1  0
 17 11  1  0
  1 28  1  0
  1 29  1  0
  1 30  1  0
  3 31  1  0
  3 32  1  0
  4 33  1  0
  4 34  1  0
  5 35  1  0
  9 36  1  0
  9 37  1  0
 12 38  1  0
 15 39  1  0
 16 40  1  0
 19 41  1  0
 20 42  1  1
 22 43  1  0
 23 44  1  0
 24 45  1  0
 26 46  1  0
 27 47  1  0
M  END
$$$$
