@<TRIPOS>MOLECULE
*****
 47 49 0 0 0
SMALL
GASTEIGER

@<TRIPOS>ATOM
      1 C          -2.0182   -2.5797    0.5463 C.3     1  UNL1        0.0047
      2 N          -2.5278   -1.2536    0.6820 N.am    1  UNL1       -0.2863
      3 C          -3.9930   -1.1608    0.8575 C.3     1  UNL1        0.0390
      4 C          -4.6713   -1.0484   -0.4879 C.3     1  UNL1        0.0600
      5 O          -6.0411   -0.9652   -0.2504 O.3     1  UNL1       -0.3935
      6 C          -1.8302   -0.0411    0.6718 C.2     1  UNL1        0.3056
      7 O          -2.5293    1.0366    0.8088 O.2     1  UNL1       -0.2524
      8 N          -0.4429    0.0891    0.5254 N.am    1  UNL1       -0.2706
      9 C           0.5409   -0.9179    0.3658 C.3     1  UNL1        0.0425
     10 C           1.8318   -0.2860    0.7121 C.2     1  UNL1       -0.0219
     11 C           3.0812   -1.0379    0.9204 C.ar    1  UNL1        0.0173
     12 C           3.0849   -2.4293    0.7918 C.ar    1  UNL1       -0.0163
     13 C           4.2163   -3.1810    0.9738 C.ar    1  UNL1        0.1241
     14 F           4.1567   -4.5344    0.8346 F       1  UNL1       -0.2055
     15 C           5.3906   -2.5669    1.2924 C.ar    1  UNL1       -0.0237
     16 C           5.4396   -1.2020    1.4303 C.ar    1  UNL1       -0.0231
     17 C           4.2677   -0.4547    1.2389 C.ar    1  UNL1        0.1310
     18 F           4.3707    0.8793    1.3860 F       1  UNL1       -0.2049
     19 C           1.6518    1.0048    0.7922 C.2     1  UNL1       -0.0540
     20 C           0.2398    1.3700    0.5124 C.3     1  UNL1        0.0722
     21 C           0.0606    2.1335   -0.7363 C.ar    1  UNL1       -0.0197
     22 C           0.1831    1.5375   -1.9691 C.ar    1  UNL1       -0.0563
     23 C           0.0058    2.2924   -3.1364 C.ar    1  UNL1       -0.0580
     24 C          -0.2923    3.6347   -3.0764 C.ar    1  UNL1       -0.0202
     25 C          -0.4154    4.2330   -1.8506 C.ar    1  UNL1        0.1172
     26 O          -0.7178    5.5950   -1.7922 O.3     1  UNL1       -0.5068
     27 C          -0.2399    3.4857   -0.7060 C.ar    1  UNL1       -0.0149
     28 H          -1.2747   -2.7416   -0.2417 H       1  UNL1        0.0429
     29 H          -1.5894   -2.9803    1.5016 H       1  UNL1        0.0429
     30 H          -2.8583   -3.3205    0.3202 H       1  UNL1        0.0429
     31 H          -4.3601   -2.0624    1.3526 H       1  UNL1        0.0487
     32 H          -4.2338   -0.2657    1.4501 H       1  UNL1        0.0487
     33 H          -4.3776   -0.1244   -1.0298 H       1  UNL1        0.0573
     34 H          -4.4990   -1.9555   -1.1039 H       1  UNL1        0.0573
     35 H          -6.2410   -0.6230    0.6683 H       1  UNL1        0.2095
     36 H           0.5762   -1.3825   -0.6477 H       1  UNL1        0.0515
     37 H           0.3461   -1.7117    1.1416 H       1  UNL1        0.0515
     38 H           2.1302   -2.8805    0.5372 H       1  UNL1        0.0653
     39 H           6.3136   -3.1242    1.4461 H       1  UNL1        0.0647
     40 H           6.3536   -0.6780    1.6826 H       1  UNL1        0.0647
     41 H           2.3896    1.7911    1.0292 H       1  UNL1        0.0597
     42 H          -0.1834    1.9484    1.3709 H       1  UNL1        0.0596
     43 H           0.4129    0.5027   -2.0849 H       1  UNL1        0.0621
     44 H           0.0974    1.8447   -4.1141 H       1  UNL1        0.0619
     45 H          -0.4334    4.2366   -3.9685 H       1  UNL1        0.0654
     46 H          -1.0382    5.9558   -0.9024 H       1  UNL1        0.2921
     47 H          -0.3328    3.9383    0.2553 H       1  UNL1        0.0657
@<TRIPOS>BOND
     1     1     2    1
     2     2     3    1
     3     3     4    1
     4     4     5    1
     5     2     6   am
     6     6     7    2
     7     6     8   am
     8     8     9    1
     9     9    10    1
    10    10    11    1
    11    11    12   ar
    12    12    13   ar
    13    13    14    1
    14    13    15   ar
    15    15    16   ar
    16    16    17   ar
    17    17    18    1
    18    10    19    2
    19    19    20    1
    20    20    21    1
    21    21    22   ar
    22    22    23   ar
    23    23    24   ar
    24    24    25   ar
    25    25    26    1
    26    25    27   ar
    27    20     8    1
    28    27    21   ar
    29    17    11   ar
    30     1    28    1
    31     1    29    1
    32     1    30    1
    33     3    31    1
    34     3    32    1
    35     4    33    1
    36     4    34    1
    37     5    35    1
    38     9    36    1
    39     9    37    1
    40    12    38    1
    41    15    39    1
    42    16    40    1
    43    19    41    1
    44    20    42    1
    45    22    43    1
    46    23    44    1
    47    24    45    1
    48    26    46    1
    49    27    47    1
