@<TRIPOS>MOLECULE
*****
 48 51 0 0 0
SMALL
GASTEIGER

@<TRIPOS>ATOM
      1 C           3.5361    2.8190   -0.3180 C.3     1  UNL1       -0.0569
      2 C           4.2323    1.6917    0.3872 C.3     1  UNL1       -0.0007
      3 C           3.3009    0.9612    1.2951 C.3     1  UNL1        0.0264
      4 N           2.7233   -0.0370    0.4325 N.am    1  UNL1       -0.2702
      5 C           1.4211   -0.5477    0.5168 C.2     1  UNL1        0.2271
      6 O           1.0157   -1.4203   -0.2892 O.2     1  UNL1       -0.2748
      7 C           0.5019   -0.0596    1.5660 C.3     1  UNL1        0.0826
      8 C          -0.8075   -0.7434    1.4522 C.ar    1  UNL1        0.1206
      9 N          -1.7749   -0.2233    0.6878 N.ar    1  UNL1       -0.2186
     10 C          -2.9825   -0.8155    0.5573 C.ar    1  UNL1        0.1285
     11 N          -4.0129   -0.2817   -0.2434 N.pl3   1  UNL1       -0.3106
     12 C          -5.2705   -0.9538   -0.3424 C.3     1  UNL1        0.0370
     13 C          -6.1869   -0.1721   -1.2401 C.3     1  UNL1        0.0634
     14 O          -6.2687    1.1654   -0.8983 O.3     1  UNL1       -0.3767
     15 C          -5.0698    1.8135   -0.8308 C.3     1  UNL1        0.0634
     16 C          -3.8658    0.9533   -0.9993 C.3     1  UNL1        0.0370
     17 C          -3.1964   -1.9844    1.2403 C.ar    1  UNL1        0.0427
     18 C          -2.2011   -2.5121    2.0217 C.ar    1  UNL1        0.2533
     19 O          -2.3654   -3.5965    2.6701 O.2     1  UNL1       -0.2677
     20 N          -1.0066   -1.9069    2.1379 N.ar    1  UNL1       -0.3104
     21 C           3.7279   -0.3925   -0.5067 C.ar    1  UNL1        0.0398
     22 C           3.9146   -1.4973   -1.3084 C.ar    1  UNL1       -0.0400
     23 C           4.9899   -1.5878   -2.1357 C.ar    1  UNL1       -0.0600
     24 C           5.9233   -0.5699   -2.1911 C.ar    1  UNL1       -0.0614
     25 C           5.7441    0.5232   -1.4018 C.ar    1  UNL1       -0.0565
     26 C           4.6671    0.6179   -0.5710 C.ar    1  UNL1       -0.0216
     27 H           4.2080    3.7225   -0.3263 H       1  UNL1        0.0236
     28 H           3.2312    2.5329   -1.3327 H       1  UNL1        0.0236
     29 H           2.6004    3.0621    0.2400 H       1  UNL1        0.0236
     30 H           5.1092    2.0610    0.9556 H       1  UNL1        0.0362
     31 H           3.8152    0.5182    2.1746 H       1  UNL1        0.0474
     32 H           2.4708    1.6279    1.6278 H       1  UNL1        0.0474
     33 H           0.3881    1.0494    1.4040 H       1  UNL1        0.0438
     34 H           0.9356   -0.1543    2.5867 H       1  UNL1        0.0438
     35 H          -5.7498   -1.1644    0.6216 H       1  UNL1        0.0487
     36 H          -5.0781   -1.9434   -0.8334 H       1  UNL1        0.0487
     37 H          -5.9468   -0.3023   -2.3235 H       1  UNL1        0.0575
     38 H          -7.2149   -0.6006   -1.1126 H       1  UNL1        0.0575
     39 H          -5.0107    2.4026    0.1078 H       1  UNL1        0.0575
     40 H          -5.0494    2.5796   -1.6592 H       1  UNL1        0.0575
     41 H          -2.9851    1.4954   -0.5508 H       1  UNL1        0.0487
     42 H          -3.5821    0.7641   -2.0564 H       1  UNL1        0.0487
     43 H          -4.1612   -2.4739    1.1469 H       1  UNL1        0.0706
     44 H          -0.2214   -2.2638    2.7150 H       1  UNL1        0.1700
     45 H           3.1941   -2.2937   -1.2721 H       1  UNL1        0.0636
     46 H           5.1241   -2.4776   -2.7697 H       1  UNL1        0.0618
     47 H           6.7626   -0.6990   -2.8719 H       1  UNL1        0.0618
     48 H           6.4710    1.3134   -1.4465 H       1  UNL1        0.0621
@<TRIPOS>BOND
     1     1     2    1
     2     2     3    1
     3     3     4    1
     4     4     5   am
     5     5     6    2
     6     5     7    1
     7     7     8    1
     8     8     9   ar
     9     9    10   ar
    10    10    11    1
    11    11    12    1
    12    12    13    1
    13    13    14    1
    14    14    15    1
    15    15    16    1
    16    10    17   ar
    17    17    18   ar
    18    18    19    2
    19    18    20   ar
    20     4    21    1
    21    21    22   ar
    22    22    23   ar
    23    23    24   ar
    24    24    25   ar
    25    25    26   ar
    26    26     2    1
    27    20     8   ar
    28    26    21   ar
    29    16    11    1
    30     1    27    1
    31     1    28    1
    32     1    29    1
    33     2    30    1
    34     3    31    1
    35     3    32    1
    36     7    33    1
    37     7    34    1
    38    12    35    1
    39    12    36    1
    40    13    37    1
    41    13    38    1
    42    15    39    1
    43    15    40    1
    44    16    41    1
    45    16    42    1
    46    17    43    1
    47    20    44    1
    48    22    45    1
    49    23    46    1
    50    24    47    1
    51    25    48    1
