
     RDKit          3D

 48 51  0  0  0  0  0  0  0  0999 V2000
    3.5361    2.8190   -0.3180 C   0  0  0  0  0  0  0  0  0  0  0  0
    4.2323    1.6917    0.3872 C   0  0  0  0  0  0  0  0  0  0  0  0
    3.3009    0.9612    1.2951 C   0  0  0  0  0  0  0  0  0  0  0  0
    2.7233   -0.0370    0.4325 N   0  0  0  0  0  0  0  0  0  0  0  0
    1.4211   -0.5477    0.5168 C   0  0  0  0  0  0  0  0  0  0  0  0
    1.0157   -1.4203   -0.2892 O   0  0  0  0  0  0  0  0  0  0  0  0
    0.5019   -0.0596    1.5660 C   0  0  0  0  0  0  0  0  0  0  0  0
   -0.8075   -0.7434    1.4522 C   0  0  0  0  0  0  0  0  0  0  0  0
   -1.7749   -0.2233    0.6878 N   0  0  0  0  0  0  0  0  0  0  0  0
   -2.9825   -0.8155    0.5573 C   0  0  0  0  0  0  0  0  0  0  0  0
   -4.0129   -0.2817   -0.2434 N   0  0  0  0  0  0  0  0  0  0  0  0
   -5.2705   -0.9538   -0.3424 C   0  0  0  0  0  0  0  0  0  0  0  0
   -6.1869   -0.1721   -1.2401 C   0  0  0  0  0  0  0  0  0  0  0  0
   -6.2687    1.1654   -0.8983 O   0  0  0  0  0  0  0  0  0  0  0  0
   -5.0698    1.8135   -0.8308 C   0  0  0  0  0  0  0  0  0  0  0  0
   -3.8658    0.9533   -0.9993 C   0  0  0  0  0  0  0  0  0  0  0  0
   -3.1964   -1.9844    1.2403 C   0  0  0  0  0  0  0  0  0  0  0  0
   -2.2011   -2.5121    2.0217 C   0  0  0  0  0  0  0  0  0  0  0  0
   -2.3654   -3.5965    2.6701 O   0  0  0  0  0  0  0  0  0  0  0  0
   -1.0066   -1.9069    2.1379 N   0  0  0  0  0  0  0  0  0  0  0  0
    3.7279   -0.3925   -0.5067 C   0  0  0  0  0  0  0  0  0  0  0  0
    3.9146   -1.4973   -1.3084 C   0  0  0  0  0  0  0  0  0  0  0  0
    4.9899   -1.5878   -2.1357 C   0  0  0  0  0  0  0  0  0  0  0  0
    5.9233   -0.5699   -2.1911 C   0  0  0  0  0  0  0  0  0  0  0  0
    5.7441    0.5232   -1.4018 C   0  0  0  0  0  0  0  0  0  0  0  0
    4.6671    0.6179   -0.5710 C   0  0  0  0  0  0  0  0  0  0  0  0
    4.2080    3.7225   -0.3263 H   0  0  0  0  0  0  0  0  0  0  0  0
    3.2312    2.5329   -1.3327 H   0  0  0  0  0  0  0  0  0  0  0  0
    2.6004    3.0621    0.2400 H   0  0  0  0  0  0  0  0  0  0  0  0
    5.1092    2.0610    0.9556 H   0  0  0  0  0  0  0  0  0  0  0  0
    3.8152    0.5182    2.1746 H   0  0  0  0  0  0  0  0  0  0  0  0
    2.4708    1.6279    1.6278 H   0  0  0  0  0  0  0  0  0  0  0  0
    0.3881    1.0494    1.4040 H   0  0  0  0  0  0  0  0  0  0  0  0
    0.9356   -0.1543    2.5867 H   0  0  0  0  0  0  0  0  0  0  0  0
   -5.7498   -1.1644    0.6216 H   0  0  0  0  0  0  0  0  0  0  0  0
   -5.0781   -1.9434   -0.8334 H   0  0  0  0  0  0  0  0  0  0  0  0
   -5.9468   -0.3023   -2.3235 H   0  0  0  0  0  0  0  0  0  0  0  0
   -7.2149   -0.6006   -1.1126 H   0  0  0  0  0  0  0  0  0  0  0  0
   -5.0107    2.4026    0.1078 H   0  0  0  0  0  0  0  0  0  0  0  0
   -5.0494    2.5796   -1.6592 H   0  0  0  0  0  0  0  0  0  0  0  0
   -2.9851    1.4954   -0.5508 H   0  0  0  0  0  0  0  0  0  0  0  0
   -3.5821    0.7641   -2.0564 H   0  0  0  0  0  0  0  0  0  0  0  0
   -4.1612   -2.4739    1.1469 H   0  0  0  0  0  0  0  0  0  0  0  0
   -0.2214   -2.2638    2.7150 H   0  0  0  0  0  0  0  0  0  0  0  0
    3.1941   -2.2937   -1.2721 H   0  0  0  0  0  0  0  0  0  0  0  0
    5.1241   -2.4776   -2.7697 H   0  0  0  0  0  0  0  0  0  0  0  0
    6.7626   -0.6990   -2.8719 H   0  0  0  0  0  0  0  0  0  0  0  0
    6.4710    1.3134   -1.4465 H   0  0  0  0  0  0  0  0  0  0  0  0
  1  2  1  0
  2  3  1  0
  3  4  1  0
  4  5  1  0
  5  6  2  0
  5  7  1  0
  7  8  1  0
  8  9  2  0
  9 10  1  0
 10 11  1  0
 11 12  1  0
 12 13  1  0
 13 14  1  0
 14 15  1  0
 15 16  1  0
 10 17  2  0
 17 18  1  0
 18 19  2  0
 18 20  1  0
  4 21  1  0
 21 22  2  0
 22 23  1  0
 23 24  2  0
 24 25  1  0
 25 26  2  0
 26  2  1  0
 20  8  1  0
 26 21  1  0
 16 11  1  0
  1 27  1  0
  1 28  1  0
  1 29  1  0
  2 30  1  0
  3 31  1  0
  3 32  1  0
  7 33  1  0
  7 34  1  0
 12 35  1  0
 12 36  1  0
 13 37  1  0
 13 38  1  0
 15 39  1  0
 15 40  1  0
 16 41  1  0
 16 42  1  0
 17 43  1  0
 20 44  1  0
 22 45  1  0
 23 46  1  0
 24 47  1  0
 25 48  1  0
M  END
$$$$
