
     RDKit          3D

 21 22  0  0  0  0  0  0  0  0999 V2000
   -2.3234   -1.2853   -0.6129 C   0  0  0  0  0  0  0  0  0  0  0  0
   -1.5071   -0.1579   -0.0864 C   0  0  0  0  0  0  0  0  0  0  0  0
   -2.1066    0.9567    0.4677 C   0  0  0  0  0  0  0  0  0  0  0  0
   -4.0229    1.0066    0.5374 Br  0  0  0  0  0  0  0  0  0  0  0  0
   -1.4300    2.0475    0.9798 C   0  0  0  0  0  0  0  0  0  0  0  0
   -2.0582    3.0254    1.4683 O   0  0  0  0  0  0  0  0  0  0  0  0
   -0.1005    2.0119    0.9310 O   0  0  0  0  0  0  0  0  0  0  0  0
    0.5417    0.9798    0.4159 C   0  0  0  0  0  0  0  0  0  0  0  0
    1.9383    1.0118    0.3982 C   0  0  0  0  0  0  0  0  0  0  0  0
    2.9506    2.4761    1.0832 Br  0  0  0  0  0  0  0  0  0  0  0  0
    2.5541   -0.0943   -0.1522 C   0  0  0  0  0  0  0  0  0  0  0  0
    3.9567   -0.0641   -0.1709 O   0  0  0  0  0  0  0  0  0  0  0  0
    1.9294   -1.2094   -0.6773 C   0  0  0  0  0  0  0  0  0  0  0  0
    0.5395   -1.2070   -0.6431 C   0  0  0  0  0  0  0  0  0  0  0  0
   -0.1276   -0.1264   -0.1039 C   0  0  0  0  0  0  0  0  0  0  0  0
   -3.3232   -1.2617   -0.1036 H   0  0  0  0  0  0  0  0  0  0  0  0
   -1.9025   -2.2772   -0.3828 H   0  0  0  0  0  0  0  0  0  0  0  0
   -2.5755   -1.1415   -1.6946 H   0  0  0  0  0  0  0  0  0  0  0  0
    4.5204   -0.6124    0.4735 H   0  0  0  0  0  0  0  0  0  0  0  0
    2.5315   -2.0137   -1.0812 H   0  0  0  0  0  0  0  0  0  0  0  0
    0.0152   -2.0650   -1.0461 H   0  0  0  0  0  0  0  0  0  0  0  0
  1  2  1  0
  2  3  2  0
  3  4  1  0
  3  5  1  0
  5  6  2  0
  5  7  1  0
  7  8  1  0
  8  9  2  0
  9 10  1  0
  9 11  1  0
 11 12  1  0
 11 13  2  0
 13 14  1  0
 14 15  2  0
 15  2  1  0
 15  8  1  0
  1 16  1  0
  1 17  1  0
  1 18  1  0
 12 19  1  0
 13 20  1  0
 14 21  1  0
M  END
$$$$
