@<TRIPOS>MOLECULE
*****
 21 22 0 0 0
SMALL
GASTEIGER

@<TRIPOS>ATOM
      1 C          -2.3234   -1.2853   -0.6129 C.3     1  UNL1       -0.0378
      2 C          -1.5071   -0.1579   -0.0864 C.ar    1  UNL1       -0.0189
      3 C          -2.1066    0.9567    0.4677 C.ar    1  UNL1        0.1057
      4 BR         -4.0229    1.0066    0.5374 Br      1  UNL1       -0.0426
      5 C          -1.4300    2.0475    0.9798 C.ar    1  UNL1        0.3517
      6 O          -2.0582    3.0254    1.4683 O.2     1  UNL1       -0.2439
      7 O          -0.1005    2.0119    0.9310 O.2     1  UNL1       -0.4201
      8 C           0.5417    0.9798    0.4159 C.ar    1  UNL1        0.1568
      9 C           1.9383    1.0118    0.3982 C.ar    1  UNL1        0.1020
     10 BR          2.9506    2.4761    1.0832 Br      1  UNL1       -0.0427
     11 C           2.5541   -0.0943   -0.1522 C.ar    1  UNL1        0.1344
     12 O           3.9567   -0.0641   -0.1709 O.3     1  UNL1       -0.5055
     13 C           1.9294   -1.2094   -0.6773 C.ar    1  UNL1       -0.0183
     14 C           0.5395   -1.2070   -0.6431 C.ar    1  UNL1       -0.0473
     15 C          -0.1276   -0.1264   -0.1039 C.ar    1  UNL1        0.0229
     16 H          -3.3232   -1.2617   -0.1036 H       1  UNL1        0.0278
     17 H          -1.9025   -2.2772   -0.3828 H       1  UNL1        0.0278
     18 H          -2.5755   -1.1415   -1.6946 H       1  UNL1        0.0278
     19 H           4.5204   -0.6124    0.4735 H       1  UNL1        0.2922
     20 H           2.5315   -2.0137   -1.0812 H       1  UNL1        0.0654
     21 H           0.0152   -2.0650   -1.0461 H       1  UNL1        0.0626
@<TRIPOS>BOND
     1     1     2    1
     2     2     3   ar
     3     3     4    1
     4     3     5   ar
     5     5     6    2
     6     5     7   ar
     7     7     8   ar
     8     8     9   ar
     9     9    10    1
    10     9    11   ar
    11    11    12    1
    12    11    13   ar
    13    13    14   ar
    14    14    15   ar
    15    15     2   ar
    16    15     8   ar
    17     1    16    1
    18     1    17    1
    19     1    18    1
    20    12    19    1
    21    13    20    1
    22    14    21    1
