
     RDKit          3D

 64 69  0  0  0  0  0  0  0  0999 V2000
   -2.2224    2.0545   -1.3455 C   0  0  0  0  0  0  0  0  0  0  0  0
   -1.9728    0.6228   -1.3071 C   0  0  2  0  0  0  0  0  0  0  0  0
   -3.0348   -0.1174   -0.5890 N   0  0  0  0  0  0  0  0  0  0  0  0
   -4.0932   -0.6912   -1.2652 C   0  0  0  0  0  0  0  0  0  0  0  0
   -4.1299   -0.5835   -2.5150 O   0  0  0  0  0  0  0  0  0  0  0  0
   -5.1942   -1.4240   -0.5871 C   0  0  0  0  0  0  0  0  0  0  0  0
   -6.3042   -1.9753   -1.1140 C   0  0  0  0  0  0  0  0  0  0  0  0
   -6.6990   -2.0266   -2.4917 N   0  0  0  0  0  0  0  0  0  0  0  0
   -7.0054   -2.5292   -0.0583 N   0  0  0  0  0  0  0  0  0  0  0  0
   -6.3868   -2.3356    0.9907 N   0  0  0  0  0  0  0  0  0  0  0  0
   -6.5701   -2.6629    2.3408 C   0  0  0  0  0  0  0  0  0  0  0  0
   -5.7101   -2.3292    3.2581 C   0  0  0  0  0  0  0  0  0  0  0  0
   -4.4984   -1.6167    3.0803 C   0  0  0  0  0  0  0  0  0  0  0  0
   -4.3697   -1.3195    1.7206 N   0  0  0  0  0  0  0  0  0  0  0  0
   -5.1908   -1.6367    0.8287 C   0  0  0  0  0  0  0  0  0  0  0  0
   -0.6680    0.0411   -1.0318 C   0  0  0  0  0  0  0  0  0  0  0  0
   -0.5984   -1.3547   -1.2408 C   0  0  0  0  0  0  0  0  0  0  0  0
    0.5160   -2.1021   -1.0455 C   0  0  0  0  0  0  0  0  0  0  0  0
    0.6018   -3.4513   -1.2039 C   0  0  0  0  0  0  0  0  0  0  0  0
    1.7651   -4.1913   -0.9544 C   0  0  0  0  0  0  0  0  0  0  0  0
    2.8738   -3.4513   -0.5255 C   0  0  0  0  0  0  0  0  0  0  0  0
    2.7896   -2.1256   -0.3721 C   0  0  0  0  0  0  0  0  0  0  0  0
    3.9774   -1.3289   -0.0230 C   0  0  0  0  0  0  0  0  0  0  0  0
    4.9513   -0.6928    0.2455 C   0  0  0  0  0  0  0  0  0  0  0  0
    6.1442    0.0584    0.5651 C   0  0  0  0  0  0  0  0  0  0  0  0
    7.3260   -0.5156    1.0490 C   0  0  0  0  0  0  0  0  0  0  0  0
    8.2189    0.4530    1.2365 N   0  0  0  0  0  0  0  0  0  0  0  0
    7.6935    1.6333    0.9019 N   0  0  0  0  0  0  0  0  0  0  0  0
    8.2712    2.9563    0.9506 C   0  0  0  0  0  0  0  0  0  0  0  0
    6.4232    1.3877    0.4895 C   0  0  0  0  0  0  0  0  0  0  0  0
    1.6447   -1.3854   -0.6065 C   0  0  0  0  0  0  0  0  0  0  0  0
    1.5670   -0.0337   -0.4024 C   0  0  0  0  0  0  0  0  0  0  0  0
    2.5666    0.6503    0.0019 O   0  0  0  0  0  0  0  0  0  0  0  0
    0.4071    0.6706   -0.6178 N   0  0  0  0  0  0  0  0  0  0  0  0
    0.4686    2.0640   -0.2468 C   0  0  0  0  0  0  0  0  0  0  0  0
    1.1913    2.9227   -1.0045 C   0  0  0  0  0  0  0  0  0  0  0  0
    1.3858    4.2295   -0.6202 C   0  0  0  0  0  0  0  0  0  0  0  0
    0.8554    4.7069    0.5416 C   0  0  0  0  0  0  0  0  0  0  0  0
    0.1028    3.8477    1.3393 C   0  0  0  0  0  0  0  0  0  0  0  0
   -0.0828    2.5152    0.9246 C   0  0  0  0  0  0  0  0  0  0  0  0
   -1.3914    2.6676   -1.6773 H   0  0  0  0  0  0  0  0  0  0  0  0
   -3.1586    2.3003   -1.9682 H   0  0  0  0  0  0  0  0  0  0  0  0
   -2.5480    2.4252   -0.3361 H   0  0  0  0  0  0  0  0  0  0  0  0
   -2.1977    0.2867   -2.3964 H   0  0  0  0  0  0  0  0  0  0  0  0
   -2.8970   -0.1471    0.4253 H   0  0  0  0  0  0  0  0  0  0  0  0
   -6.2263   -2.7300   -3.1022 H   0  0  0  0  0  0  0  0  0  0  0  0
   -7.4158   -1.3866   -2.8413 H   0  0  0  0  0  0  0  0  0  0  0  0
   -7.5113   -3.2148    2.5292 H   0  0  0  0  0  0  0  0  0  0  0  0
   -5.8830   -2.6156    4.3284 H   0  0  0  0  0  0  0  0  0  0  0  0
   -3.8464   -1.3531    3.8015 H   0  0  0  0  0  0  0  0  0  0  0  0
   -1.4896   -1.9035   -1.6031 H   0  0  0  0  0  0  0  0  0  0  0  0
   -0.2804   -3.9954   -1.5318 H   0  0  0  0  0  0  0  0  0  0  0  0
    1.8675   -5.2399   -1.0429 H   0  0  0  0  0  0  0  0  0  0  0  0
    3.8230   -3.9775   -0.3251 H   0  0  0  0  0  0  0  0  0  0  0  0
    7.4816   -1.5997    1.2398 H   0  0  0  0  0  0  0  0  0  0  0  0
    8.1033    3.4421    1.9409 H   0  0  0  0  0  0  0  0  0  0  0  0
    9.3681    2.9311    0.8336 H   0  0  0  0  0  0  0  0  0  0  0  0
    7.8357    3.6051    0.1590 H   0  0  0  0  0  0  0  0  0  0  0  0
    5.7087    2.1345    0.1389 H   0  0  0  0  0  0  0  0  0  0  0  0
    1.6325    2.6097   -1.9277 H   0  0  0  0  0  0  0  0  0  0  0  0
    1.9566    4.9340   -1.2416 H   0  0  0  0  0  0  0  0  0  0  0  0
    1.0507    5.7522    0.8439 H   0  0  0  0  0  0  0  0  0  0  0  0
   -0.3122    4.2411    2.2569 H   0  0  0  0  0  0  0  0  0  0  0  0
   -0.6805    1.9001    1.5955 H   0  0  0  0  0  0  0  0  0  0  0  0
  1  2  1  0
  2  3  1  0
  3  4  1  0
  4  5  2  0
  4  6  1  0
  6  7  1  0
  7  8  1  0
  7  9  2  0
  9 10  1  0
 10 11  1  0
 11 12  2  0
 12 13  1  0
 13 14  2  0
 14 15  1  0
  2 16  1  0
 16 17  2  0
 17 18  1  0
 18 19  2  0
 19 20  1  0
 20 21  2  0
 21 22  1  0
 22 23  1  0
 23 24  3  0
 24 25  1  0
 25 26  1  0
 26 27  2  0
 27 28  1  0
 28 29  1  0
 28 30  1  0
 22 31  2  0
 31 32  1  0
 32 33  2  0
 32 34  1  0
 34 35  1  0
 35 36  2  0
 36 37  1  0
 37 38  2  0
 38 39  1  0
 39 40  2  0
 15  6  2  0
 34 16  1  0
 40 35  1  0
 15 10  1  0
 31 18  1  0
 30 25  2  0
  1 41  1  0
  1 42  1  0
  1 43  1  0
  2 44  1  6
  3 45  1  0
  8 46  1  0
  8 47  1  0
 11 48  1  0
 12 49  1  0
 13 50  1  0
 17 51  1  0
 19 52  1  0
 20 53  1  0
 21 54  1  0
 26 55  1  0
 29 56  1  0
 29 57  1  0
 29 58  1  0
 30 59  1  0
 36 60  1  0
 37 61  1  0
 38 62  1  0
 39 63  1  0
 40 64  1  0
M  END
$$$$
