@<TRIPOS>MOLECULE
*****
 64 69 0 0 0
SMALL
GASTEIGER

@<TRIPOS>ATOM
      1 C          -2.2224    2.0545   -1.3455 C.3     1  UNL1       -0.0411
      2 C          -1.9728    0.6228   -1.3071 C.3     1  UNL1        0.0614
      3 N          -3.0348   -0.1174   -0.5890 N.am    1  UNL1       -0.3032
      4 C          -4.0932   -0.6912   -1.2652 C.2     1  UNL1        0.2516
      5 O          -4.1299   -0.5835   -2.5150 O.2     1  UNL1       -0.2699
      6 C          -5.1942   -1.4240   -0.5871 C.ar    1  UNL1        0.1218
      7 C          -6.3042   -1.9753   -1.1140 C.ar    1  UNL1        0.1529
      8 N          -6.6990   -2.0266   -2.4917 N.pl3   1  UNL1       -0.3411
      9 N          -7.0054   -2.5292   -0.0583 N.ar    1  UNL1       -0.1495
     10 N          -6.3868   -2.3356    0.9907 N.ar    1  UNL1       -0.2192
     11 C          -6.5701   -2.6629    2.3408 C.ar    1  UNL1        0.0329
     12 C          -5.7101   -2.3292    3.2581 C.ar    1  UNL1       -0.0253
     13 C          -4.4984   -1.6167    3.0803 C.ar    1  UNL1        0.0314
     14 N          -4.3697   -1.3195    1.7206 N.ar    1  UNL1       -0.2354
     15 C          -5.1908   -1.6367    0.8287 C.ar    1  UNL1        0.1695
     16 C          -0.6680    0.0411   -1.0318 C.ar    1  UNL1        0.0477
     17 C          -0.5984   -1.3547   -1.2408 C.ar    1  UNL1       -0.0321
     18 C           0.5160   -2.1021   -1.0455 C.ar    1  UNL1       -0.0098
     19 C           0.6018   -3.4513   -1.2039 C.ar    1  UNL1       -0.0537
     20 C           1.7651   -4.1913   -0.9544 C.ar    1  UNL1       -0.0600
     21 C           2.8738   -3.4513   -0.5255 C.ar    1  UNL1       -0.0455
     22 C           2.7896   -2.1256   -0.3721 C.ar    1  UNL1        0.0382
     23 C           3.9774   -1.3289   -0.0230 C.1     1  UNL1       -0.0602
     24 C           4.9513   -0.6928    0.2455 C.1     1  UNL1       -0.0579
     25 C           6.1442    0.0584    0.5651 C.ar    1  UNL1        0.0626
     26 C           7.3260   -0.5156    1.0490 C.ar    1  UNL1        0.0648
     27 N           8.2189    0.4530    1.2365 N.ar    1  UNL1       -0.1787
     28 N           7.6935    1.6333    0.9019 N.ar    1  UNL1       -0.2733
     29 C           8.2712    2.9563    0.9506 C.3     1  UNL1        0.0302
     30 C           6.4232    1.3877    0.4895 C.ar    1  UNL1        0.0406
     31 C           1.6447   -1.3854   -0.6065 C.ar    1  UNL1        0.0624
     32 C           1.5670   -0.0337   -0.4024 C.ar    1  UNL1        0.2649
     33 O           2.5666    0.6503    0.0019 O.2     1  UNL1       -0.2666
     34 N           0.4071    0.6706   -0.6178 N.ar    1  UNL1       -0.2789
     35 C           0.4686    2.0640   -0.2468 C.ar    1  UNL1        0.0498
     36 C           1.1913    2.9227   -1.0045 C.ar    1  UNL1       -0.0377
     37 C           1.3858    4.2295   -0.6202 C.ar    1  UNL1       -0.0598
     38 C           0.8554    4.7069    0.5416 C.ar    1  UNL1       -0.0616
     39 C           0.1028    3.8477    1.3393 C.ar    1  UNL1       -0.0598
     40 C          -0.0828    2.5152    0.9246 C.ar    1  UNL1       -0.0377
     41 H          -1.3914    2.6676   -1.6773 H       1  UNL1        0.0251
     42 H          -3.1586    2.3003   -1.9682 H       1  UNL1        0.0251
     43 H          -2.5480    2.4252   -0.3361 H       1  UNL1        0.0251
     44 H          -2.1977    0.2867   -2.3964 H       1  UNL1        0.0560
     45 H          -2.8970   -0.1471    0.4253 H       1  UNL1        0.1497
     46 H          -6.2263   -2.7300   -3.1022 H       1  UNL1        0.1438
     47 H          -7.4158   -1.3866   -2.8413 H       1  UNL1        0.1438
     48 H          -7.5113   -3.2148    2.5292 H       1  UNL1        0.0831
     49 H          -5.8830   -2.6156    4.3284 H       1  UNL1        0.0648
     50 H          -3.8464   -1.3531    3.8015 H       1  UNL1        0.0831
     51 H          -1.4896   -1.9035   -1.6031 H       1  UNL1        0.0642
     52 H          -0.2804   -3.9954   -1.5318 H       1  UNL1        0.0624
     53 H           1.8675   -5.2399   -1.0429 H       1  UNL1        0.0618
     54 H           3.8230   -3.9775   -0.3251 H       1  UNL1        0.0630
     55 H           7.4816   -1.5997    1.2398 H       1  UNL1        0.0860
     56 H           8.1033    3.4421    1.9409 H       1  UNL1        0.0473
     57 H           9.3681    2.9311    0.8336 H       1  UNL1        0.0473
     58 H           7.8357    3.6051    0.1590 H       1  UNL1        0.0473
     59 H           5.7087    2.1345    0.1389 H       1  UNL1        0.0838
     60 H           1.6325    2.6097   -1.9277 H       1  UNL1        0.0638
     61 H           1.9566    4.9340   -1.2416 H       1  UNL1        0.0618
     62 H           1.0507    5.7522    0.8439 H       1  UNL1        0.0618
     63 H          -0.3122    4.2411    2.2569 H       1  UNL1        0.0618
     64 H          -0.6805    1.9001    1.5955 H       1  UNL1        0.0638
@<TRIPOS>BOND
     1     1     2    1
     2     2     3    1
     3     3     4   am
     4     4     5    2
     5     4     6    1
     6     6     7   ar
     7     7     8    1
     8     7     9   ar
     9     9    10   ar
    10    10    11   ar
    11    11    12   ar
    12    12    13   ar
    13    13    14   ar
    14    14    15   ar
    15     2    16    1
    16    16    17   ar
    17    17    18   ar
    18    18    19   ar
    19    19    20   ar
    20    20    21   ar
    21    21    22   ar
    22    22    23    1
    23    23    24    3
    24    24    25    1
    25    25    26   ar
    26    26    27   ar
    27    27    28   ar
    28    28    29    1
    29    28    30   ar
    30    22    31   ar
    31    31    32   ar
    32    32    33    2
    33    32    34   ar
    34    34    35    1
    35    35    36   ar
    36    36    37   ar
    37    37    38   ar
    38    38    39   ar
    39    39    40   ar
    40    15     6   ar
    41    34    16   ar
    42    40    35   ar
    43    15    10   ar
    44    31    18   ar
    45    30    25   ar
    46     1    41    1
    47     1    42    1
    48     1    43    1
    49     2    44    1
    50     3    45    1
    51     8    46    1
    52     8    47    1
    53    11    48    1
    54    12    49    1
    55    13    50    1
    56    17    51    1
    57    19    52    1
    58    20    53    1
    59    21    54    1
    60    26    55    1
    61    29    56    1
    62    29    57    1
    63    29    58    1
    64    30    59    1
    65    36    60    1
    66    37    61    1
    67    38    62    1
    68    39    63    1
    69    40    64    1
