@<TRIPOS>MOLECULE
*****
 39 41 0 0 0
SMALL
GASTEIGER

@<TRIPOS>ATOM
      1 C          -5.0862   -1.6292   -1.2559 C.3     1  UNL1       -0.0248
      2 C          -4.0967   -0.6433   -0.7341 C.3     1  UNL1        0.1121
      3 C          -3.9843    0.5909   -1.6027 C.3     1  UNL1       -0.0248
      4 C          -4.6055   -0.1570    0.6276 C.3     1  UNL1        0.0499
      5 C          -3.6640    0.9058    1.0662 C.2     1  UNL1        0.1704
      6 O          -4.0623    1.9466    1.6196 O.2     1  UNL1       -0.2918
      7 C          -2.2388    0.7162    0.8383 C.ar    1  UNL1        0.0594
      8 C          -1.2901    1.5762    1.3839 C.ar    1  UNL1       -0.0443
      9 C           0.0196    1.3264    1.1211 C.ar    1  UNL1       -0.0190
     10 C           0.4648    0.2618    0.3391 C.ar    1  UNL1        0.1245
     11 O           1.8185    0.0588    0.1064 O.3     1  UNL1       -0.4873
     12 C           2.7927    0.9289    0.6576 C.3     1  UNL1        0.1146
     13 C           4.1637    0.5325    0.2870 C.ar    1  UNL1       -0.0103
     14 C           4.8212    0.9832   -0.8386 C.ar    1  UNL1       -0.0540
     15 C           6.1151    0.5624   -1.1194 C.ar    1  UNL1       -0.0430
     16 C           6.7692   -0.3210   -0.2693 C.ar    1  UNL1        0.0410
     17 CL          8.4055   -0.8667   -0.6044 Cl      1  UNL1       -0.0835
     18 C           6.1216   -0.7708    0.8481 C.ar    1  UNL1       -0.0430
     19 C           4.8431   -0.3433    1.1082 C.ar    1  UNL1       -0.0540
     20 C          -0.5104   -0.5591   -0.1772 C.ar    1  UNL1        0.0225
     21 C          -1.8598   -0.3572    0.0544 C.ar    1  UNL1        0.1352
     22 O          -2.8250   -1.2161   -0.4894 O.3     1  UNL1       -0.4850
     23 H          -4.9736   -2.5771   -0.7060 H       1  UNL1        0.0268
     24 H          -5.0691   -1.7499   -2.3564 H       1  UNL1        0.0268
     25 H          -6.1095   -1.2442   -0.9980 H       1  UNL1        0.0268
     26 H          -3.0954    0.5386   -2.2679 H       1  UNL1        0.0268
     27 H          -3.8696    1.5230   -0.9910 H       1  UNL1        0.0268
     28 H          -4.9160    0.7524   -2.1971 H       1  UNL1        0.0268
     29 H          -4.6015   -1.0054    1.3172 H       1  UNL1        0.0384
     30 H          -5.6214    0.2933    0.5224 H       1  UNL1        0.0384
     31 H          -1.6541    2.3936    1.9859 H       1  UNL1        0.0627
     32 H           0.7645    1.9796    1.5340 H       1  UNL1        0.0654
     33 H           2.6122    1.9303    0.1672 H       1  UNL1        0.0748
     34 H           2.6792    1.0510    1.7547 H       1  UNL1        0.0748
     35 H           4.3245    1.6576   -1.4895 H       1  UNL1        0.0622
     36 H           6.6587    0.8977   -1.9948 H       1  UNL1        0.0632
     37 H           6.6025   -1.4575    1.5282 H       1  UNL1        0.0632
     38 H           4.3645   -0.7286    2.0122 H       1  UNL1        0.0622
     39 H          -0.2076   -1.3940   -0.7875 H       1  UNL1        0.0691
@<TRIPOS>BOND
     1     1     2    1
     2     2     3    1
     3     2     4    1
     4     4     5    1
     5     5     6    2
     6     5     7    1
     7     7     8   ar
     8     8     9   ar
     9     9    10   ar
    10    10    11    1
    11    11    12    1
    12    12    13    1
    13    13    14   ar
    14    14    15   ar
    15    15    16   ar
    16    16    17    1
    17    16    18   ar
    18    18    19   ar
    19    10    20   ar
    20    20    21   ar
    21    21    22    1
    22    22     2    1
    23    21     7   ar
    24    19    13   ar
    25     1    23    1
    26     1    24    1
    27     1    25    1
    28     3    26    1
    29     3    27    1
    30     3    28    1
    31     4    29    1
    32     4    30    1
    33     8    31    1
    34     9    32    1
    35    12    33    1
    36    12    34    1
    37    14    35    1
    38    15    36    1
    39    18    37    1
    40    19    38    1
    41    20    39    1
