
     RDKit          3D

 49 50  0  0  0  0  0  0  0  0999 V2000
    9.3729   -0.3797    0.5351 N   0  0  0  0  0  0  0  0  0  0  0  0
    8.4719    0.5245   -0.1180 C   0  0  0  0  0  0  0  0  0  0  0  0
    8.8921    1.5897   -0.7469 N   0  0  0  0  0  0  0  0  0  0  0  0
    7.0494    0.2471   -0.0787 C   0  0  0  0  0  0  0  0  0  0  0  0
    6.2095    0.6302   -1.0848 C   0  0  0  0  0  0  0  0  0  0  0  0
    4.8425    0.3833   -1.0842 C   0  0  0  0  0  0  0  0  0  0  0  0
    4.2831   -0.2953    0.0033 C   0  0  0  0  0  0  0  0  0  0  0  0
    2.9269   -0.6097    0.1347 O   0  0  0  0  0  0  0  0  0  0  0  0
    2.0927   -0.1968   -0.9258 C   0  0  0  0  0  0  0  0  0  0  0  0
    0.6580   -0.5673   -0.7155 C   0  0  0  0  0  0  0  0  0  0  0  0
    0.0684    0.0463    0.5386 C   0  0  0  0  0  0  0  0  0  0  0  0
   -1.3746   -0.4326    0.5898 C   0  0  0  0  0  0  0  0  0  0  0  0
   -2.0994    0.0975    1.7897 C   0  0  0  0  0  0  0  0  0  0  0  0
   -3.3992   -0.3487    1.8198 O   0  0  0  0  0  0  0  0  0  0  0  0
   -4.4189   -0.1300    0.9523 C   0  0  0  0  0  0  0  0  0  0  0  0
   -5.5161   -0.8467    1.4661 C   0  0  0  0  0  0  0  0  0  0  0  0
   -6.7606   -0.8505    0.8208 C   0  0  0  0  0  0  0  0  0  0  0  0
   -6.9396   -0.1408   -0.3502 C   0  0  0  0  0  0  0  0  0  0  0  0
   -5.8798    0.5689   -0.8724 C   0  0  0  0  0  0  0  0  0  0  0  0
   -4.6753    0.5499   -0.2128 C   0  0  0  0  0  0  0  0  0  0  0  0
   -8.1849   -0.0740   -1.1039 C   0  0  0  0  0  0  0  0  0  0  0  0
   -8.5153    1.0786   -1.8715 N   0  0  0  0  0  0  0  0  0  0  0  0
   -9.1191   -0.9281   -1.2171 N   0  0  0  0  0  0  0  0  0  0  0  0
    5.1615   -0.6677    1.0022 C   0  0  0  0  0  0  0  0  0  0  0  0
    6.5261   -0.4231    1.0051 C   0  0  0  0  0  0  0  0  0  0  0  0
    9.8127   -1.2659    0.2104 H   0  0  0  0  0  0  0  0  0  0  0  0
    9.4186    0.1655    1.4235 H   0  0  0  0  0  0  0  0  0  0  0  0
    8.2259    2.2383   -1.2172 H   0  0  0  0  0  0  0  0  0  0  0  0
    6.6106    1.1648   -1.9549 H   0  0  0  0  0  0  0  0  0  0  0  0
    4.1696    0.6790   -1.8692 H   0  0  0  0  0  0  0  0  0  0  0  0
    2.4400   -0.7651   -1.8203 H   0  0  0  0  0  0  0  0  0  0  0  0
    2.2492    0.8627   -1.1565 H   0  0  0  0  0  0  0  0  0  0  0  0
    0.0745   -0.1674   -1.5666 H   0  0  0  0  0  0  0  0  0  0  0  0
    0.5503   -1.6696   -0.7208 H   0  0  0  0  0  0  0  0  0  0  0  0
    0.0044    1.1503    0.4616 H   0  0  0  0  0  0  0  0  0  0  0  0
    0.6021   -0.2026    1.4600 H   0  0  0  0  0  0  0  0  0  0  0  0
   -1.8601   -0.0860   -0.3222 H   0  0  0  0  0  0  0  0  0  0  0  0
   -1.4238   -1.5419    0.6532 H   0  0  0  0  0  0  0  0  0  0  0  0
   -1.6066   -0.2342    2.7496 H   0  0  0  0  0  0  0  0  0  0  0  0
   -2.0036    1.2167    1.8186 H   0  0  0  0  0  0  0  0  0  0  0  0
   -5.6196   -1.4692    2.3570 H   0  0  0  0  0  0  0  0  0  0  0  0
   -7.6626   -1.3609    1.1237 H   0  0  0  0  0  0  0  0  0  0  0  0
   -5.8707    1.1618   -1.7677 H   0  0  0  0  0  0  0  0  0  0  0  0
   -3.8085    1.0849   -0.5421 H   0  0  0  0  0  0  0  0  0  0  0  0
   -8.3653    2.0227   -1.4230 H   0  0  0  0  0  0  0  0  0  0  0  0
   -8.3558    2.0147   -1.3991 H   0  0  0  0  0  0  0  0  0  0  0  0
   -9.1185   -1.8644   -0.7485 H   0  0  0  0  0  0  0  0  0  0  0  0
    4.7452   -1.1983    1.8597 H   0  0  0  0  0  0  0  0  0  0  0  0
    7.1201   -0.7608    1.8423 H   0  0  0  0  0  0  0  0  0  0  0  0
  1  2  1  0
  2  3  2  3
  2  4  1  0
  4  5  2  0
  5  6  1  0
  6  7  2  0
  7  8  1  0
  8  9  1  0
  9 10  1  0
 10 11  1  0
 11 12  1  0
 12 13  1  0
 13 14  1  0
 14 15  1  0
 15 16  2  0
 16 17  1  0
 17 18  2  0
 18 19  1  0
 19 20  2  0
 18 21  1  0
 21 22  1  0
 21 23  2  3
  7 24  1  0
 24 25  2  0
 25  4  1  0
 20 15  1  0
  1 26  1  0
  1 27  1  0
  3 28  1  0
  5 29  1  0
  6 30  1  0
  9 31  1  0
  9 32  1  0
 10 33  1  0
 10 34  1  0
 11 35  1  0
 11 36  1  0
 12 37  1  0
 12 38  1  0
 13 39  1  0
 13 40  1  0
 16 41  1  0
 17 42  1  0
 19 43  1  0
 20 44  1  0
 22 45  1  0
 22 46  1  0
 23 47  1  0
 24 48  1  0
 25 49  1  0
M  END
$$$$
