@<TRIPOS>MOLECULE
*****
 49 50 0 0 0
SMALL
GASTEIGER

@<TRIPOS>ATOM
      1 N           9.3729   -0.3797    0.5351 N.pl3   1  UNL1       -0.2466
      2 C           8.4719    0.5245   -0.1180 C.2     1  UNL1        0.3081
      3 N           8.8921    1.5897   -0.7469 N.2     1  UNL1       -0.0994
      4 C           7.0494    0.2471   -0.0787 C.ar    1  UNL1        0.0649
      5 C           6.2095    0.6302   -1.0848 C.ar    1  UNL1       -0.0434
      6 C           4.8425    0.3833   -1.0842 C.ar    1  UNL1       -0.0191
      7 C           4.2831   -0.2953    0.0033 C.ar    1  UNL1        0.1205
      8 O           2.9269   -0.6097    0.1347 O.3     1  UNL1       -0.4920
      9 C           2.0927   -0.1968   -0.9258 C.3     1  UNL1        0.0896
     10 C           0.6580   -0.5673   -0.7155 C.3     1  UNL1       -0.0185
     11 C           0.0684    0.0463    0.5386 C.3     1  UNL1       -0.0469
     12 C          -1.3746   -0.4326    0.5898 C.3     1  UNL1       -0.0185
     13 C          -2.0994    0.0975    1.7897 C.3     1  UNL1        0.0896
     14 O          -3.3992   -0.3487    1.8198 O.3     1  UNL1       -0.4920
     15 C          -4.4189   -0.1300    0.9523 C.ar    1  UNL1        0.1205
     16 C          -5.5161   -0.8467    1.4661 C.ar    1  UNL1       -0.0191
     17 C          -6.7606   -0.8505    0.8208 C.ar    1  UNL1       -0.0434
     18 C          -6.9396   -0.1408   -0.3502 C.ar    1  UNL1        0.0649
     19 C          -5.8798    0.5689   -0.8724 C.ar    1  UNL1       -0.0434
     20 C          -4.6753    0.5499   -0.2128 C.ar    1  UNL1       -0.0191
     21 C          -8.1849   -0.0740   -1.1039 C.2     1  UNL1        0.3081
     22 N          -8.5153    1.0786   -1.8715 N.pl3   1  UNL1       -0.2466
     23 N          -9.1191   -0.9281   -1.2171 N.2     1  UNL1       -0.0994
     24 C           5.1615   -0.6677    1.0022 C.ar    1  UNL1       -0.0191
     25 C           6.5261   -0.4231    1.0051 C.ar    1  UNL1       -0.0434
     26 H           9.8127   -1.2659    0.2104 H       1  UNL1        0.2884
     27 H           9.4186    0.1655    1.4235 H       1  UNL1        0.2884
     28 H           8.2259    2.2383   -1.2172 H       1  UNL1        0.3633
     29 H           6.6106    1.1648   -1.9549 H       1  UNL1        0.0627
     30 H           4.1696    0.6790   -1.8692 H       1  UNL1        0.0654
     31 H           2.4400   -0.7651   -1.8203 H       1  UNL1        0.0696
     32 H           2.2492    0.8627   -1.1565 H       1  UNL1        0.0696
     33 H           0.0745   -0.1674   -1.5666 H       1  UNL1        0.0298
     34 H           0.5503   -1.6696   -0.7208 H       1  UNL1        0.0298
     35 H           0.0044    1.1503    0.4616 H       1  UNL1        0.0267
     36 H           0.6021   -0.2026    1.4600 H       1  UNL1        0.0267
     37 H          -1.8601   -0.0860   -0.3222 H       1  UNL1        0.0298
     38 H          -1.4238   -1.5419    0.6532 H       1  UNL1        0.0298
     39 H          -1.6066   -0.2342    2.7496 H       1  UNL1        0.0696
     40 H          -2.0036    1.2167    1.8186 H       1  UNL1        0.0696
     41 H          -5.6196   -1.4692    2.3570 H       1  UNL1        0.0654
     42 H          -7.6626   -1.3609    1.1237 H       1  UNL1        0.0627
     43 H          -5.8707    1.1618   -1.7677 H       1  UNL1        0.0627
     44 H          -3.8085    1.0849   -0.5421 H       1  UNL1        0.0654
     45 H          -8.3653    2.0227   -1.4230 H       1  UNL1        0.2884
     46 H          -8.3558    2.0147   -1.3991 H       1  UNL1        0.2884
     47 H          -9.1185   -1.8644   -0.7485 H       1  UNL1        0.3633
     48 H           4.7452   -1.1983    1.8597 H       1  UNL1        0.0654
     49 H           7.1201   -0.7608    1.8423 H       1  UNL1        0.0627
@<TRIPOS>BOND
     1     1     2    1
     2     2     3    2
     3     2     4    1
     4     4     5   ar
     5     5     6   ar
     6     6     7   ar
     7     7     8    1
     8     8     9    1
     9     9    10    1
    10    10    11    1
    11    11    12    1
    12    12    13    1
    13    13    14    1
    14    14    15    1
    15    15    16   ar
    16    16    17   ar
    17    17    18   ar
    18    18    19   ar
    19    19    20   ar
    20    18    21    1
    21    21    22    1
    22    21    23    2
    23     7    24   ar
    24    24    25   ar
    25    25     4   ar
    26    20    15   ar
    27     1    26    1
    28     1    27    1
    29     3    28    1
    30     5    29    1
    31     6    30    1
    32     9    31    1
    33     9    32    1
    34    10    33    1
    35    10    34    1
    36    11    35    1
    37    11    36    1
    38    12    37    1
    39    12    38    1
    40    13    39    1
    41    13    40    1
    42    16    41    1
    43    17    42    1
    44    19    43    1
    45    20    44    1
    46    22    45    1
    47    22    46    1
    48    23    47    1
    49    24    48    1
    50    25    49    1
