@<TRIPOS>MOLECULE
*****
 67 70 0 0 0
SMALL
GASTEIGER

@<TRIPOS>ATOM
      1 C           8.3603   -4.1772    1.6002 C.3     1  UNL1        0.0788
      2 O           6.9594   -4.2760    1.4365 O.3     1  UNL1       -0.4951
      3 C           6.2988   -3.2268    0.8203 C.ar    1  UNL1        0.1203
      4 C           4.9157   -3.2579    0.6258 C.ar    1  UNL1       -0.0165
      5 C           4.2462   -2.2175    0.0126 C.ar    1  UNL1       -0.0157
      6 C           4.9194   -1.1160   -0.4271 C.ar    1  UNL1        0.1335
      7 O           4.3213   -0.0212   -1.0564 O.3     1  UNL1       -0.4114
      8 C           3.8457    1.0809   -0.3189 C.2     1  UNL1        0.4090
      9 O           4.0047    0.9873    0.9230 O.2     1  UNL1       -0.2258
     10 N           3.2419    2.1904   -0.9577 N.am    1  UNL1       -0.2521
     11 C           3.1086    2.2016   -2.3924 C.3     1  UNL1        0.1151
     12 C           4.2789    2.8078   -3.0679 C.2     1  UNL1        0.3224
     13 O           5.2672    3.2608   -2.4433 O.2     1  UNL1       -0.2492
     14 O           4.2798    2.8763   -4.4489 O.3     1  UNL1       -0.4795
     15 C           2.7640    3.2967   -0.1701 C.3     1  UNL1        0.0435
     16 C           1.3538    3.1727    0.2443 C.ar    1  UNL1       -0.0298
     17 C           1.0300    2.5716    1.4425 C.ar    1  UNL1       -0.0536
     18 C          -0.2638    2.4287    1.8705 C.ar    1  UNL1       -0.0196
     19 C          -1.3210    2.9068    1.0722 C.ar    1  UNL1        0.1205
     20 O          -2.5999    2.7384    1.5522 O.3     1  UNL1       -0.4916
     21 C          -3.8177    3.0513    1.0550 C.3     1  UNL1        0.0951
     22 C          -4.2321    2.3331   -0.1715 C.3     1  UNL1        0.0272
     23 C          -4.3693    0.8873    0.0689 C.ar    1  UNL1        0.0860
     24 N          -5.5643    0.2864    0.3582 N.ar    1  UNL1       -0.2136
     25 C          -5.3393   -1.0173    0.5455 C.ar    1  UNL1        0.2277
     26 C          -6.3334   -2.0509    0.8777 C.ar    1  UNL1        0.0371
     27 C          -5.9469   -3.3636    1.0428 C.ar    1  UNL1       -0.0461
     28 C          -6.9072   -4.3306    1.3578 C.ar    1  UNL1       -0.0195
     29 C          -8.2409   -4.0201    1.5116 C.ar    1  UNL1        0.1169
     30 O          -9.1976   -4.9843    1.8256 O.3     1  UNL1       -0.5068
     31 C          -8.6131   -2.7035    1.3435 C.ar    1  UNL1       -0.0195
     32 C          -7.6637   -1.7263    1.0285 C.ar    1  UNL1       -0.0461
     33 O          -4.0644   -1.2232    0.3810 O.2     1  UNL1       -0.4402
     34 C          -3.4398   -0.0820    0.0880 C.ar    1  UNL1        0.1258
     35 C          -1.9795   -0.0347   -0.1531 C.3     1  UNL1       -0.0045
     36 C          -0.9817    3.5042   -0.1194 C.ar    1  UNL1       -0.0196
     37 C           0.3356    3.6479   -0.5523 C.ar    1  UNL1       -0.0536
     38 C           6.2949   -1.0936   -0.2294 C.ar    1  UNL1       -0.0157
     39 C           6.9720   -2.1142    0.3751 C.ar    1  UNL1       -0.0165
     40 H           8.7537   -5.0124    2.2297 H       1  UNL1        0.0660
     41 H           8.5871   -3.1863    2.0599 H       1  UNL1        0.0660
     42 H           8.8567   -4.2126    0.6026 H       1  UNL1        0.0660
     43 H           4.4055   -4.1432    0.9838 H       1  UNL1        0.0655
     44 H           3.1629   -2.2570   -0.1325 H       1  UNL1        0.0655
     45 H           2.1508    2.6497   -2.7293 H       1  UNL1        0.0581
     46 H           3.0696    1.1307   -2.7298 H       1  UNL1        0.0581
     47 H           4.9590    3.4073   -4.9946 H       1  UNL1        0.2951
     48 H           2.9425    4.2471   -0.7467 H       1  UNL1        0.0515
     49 H           3.4513    3.3812    0.7162 H       1  UNL1        0.0515
     50 H           1.8319    2.1989    2.0708 H       1  UNL1        0.0622
     51 H          -0.5062    1.9553    2.8129 H       1  UNL1        0.0654
     52 H          -3.9023    4.1720    0.8673 H       1  UNL1        0.0700
     53 H          -4.5873    2.9035    1.8783 H       1  UNL1        0.0700
     54 H          -3.5830    2.5112   -1.0702 H       1  UNL1        0.0362
     55 H          -5.2275    2.7667   -0.4998 H       1  UNL1        0.0362
     56 H          -4.9059   -3.6062    0.9223 H       1  UNL1        0.0626
     57 H          -6.5955   -5.3574    1.4856 H       1  UNL1        0.0654
     58 H          -9.9624   -5.2374    1.2462 H       1  UNL1        0.2921
     59 H          -9.6662   -2.4495    1.4632 H       1  UNL1        0.0654
     60 H          -7.9691   -0.6844    0.8969 H       1  UNL1        0.0626
     61 H          -1.7788    0.7973   -0.8520 H       1  UNL1        0.0308
     62 H          -1.6218   -0.9742   -0.6603 H       1  UNL1        0.0308
     63 H          -1.4042    0.0043    0.7918 H       1  UNL1        0.0308
     64 H          -1.7804    3.8932   -0.7423 H       1  UNL1        0.0654
     65 H           0.5237    4.1381   -1.5198 H       1  UNL1        0.0622
     66 H           6.8282   -0.2212   -0.5777 H       1  UNL1        0.0655
     67 H           8.0451   -2.0077    0.4856 H       1  UNL1        0.0655
@<TRIPOS>BOND
     1     1     2    1
     2     2     3    1
     3     3     4   ar
     4     4     5   ar
     5     5     6   ar
     6     6     7    1
     7     7     8    1
     8     8     9    2
     9     8    10   am
    10    10    11    1
    11    11    12    1
    12    12    13    2
    13    12    14    1
    14    10    15    1
    15    15    16    1
    16    16    17   ar
    17    17    18   ar
    18    18    19   ar
    19    19    20    1
    20    20    21    1
    21    21    22    1
    22    22    23    1
    23    23    24   ar
    24    24    25   ar
    25    25    26    1
    26    26    27   ar
    27    27    28   ar
    28    28    29   ar
    29    29    30    1
    30    29    31   ar
    31    31    32   ar
    32    25    33   ar
    33    33    34   ar
    34    34    35    1
    35    19    36   ar
    36    36    37   ar
    37     6    38   ar
    38    38    39   ar
    39    39     3   ar
    40    37    16   ar
    41    34    23   ar
    42    32    26   ar
    43     1    40    1
    44     1    41    1
    45     1    42    1
    46     4    43    1
    47     5    44    1
    48    11    45    1
    49    11    46    1
    50    14    47    1
    51    15    48    1
    52    15    49    1
    53    17    50    1
    54    18    51    1
    55    21    52    1
    56    21    53    1
    57    22    54    1
    58    22    55    1
    59    27    56    1
    60    28    57    1
    61    30    58    1
    62    31    59    1
    63    32    60    1
    64    35    61    1
    65    35    62    1
    66    35    63    1
    67    36    64    1
    68    37    65    1
    69    38    66    1
    70    39    67    1
