
     RDKit          3D

 67 70  0  0  0  0  0  0  0  0999 V2000
    8.3603   -4.1772    1.6002 C   0  0  0  0  0  0  0  0  0  0  0  0
    6.9594   -4.2760    1.4365 O   0  0  0  0  0  0  0  0  0  0  0  0
    6.2988   -3.2268    0.8203 C   0  0  0  0  0  0  0  0  0  0  0  0
    4.9157   -3.2579    0.6258 C   0  0  0  0  0  0  0  0  0  0  0  0
    4.2462   -2.2175    0.0126 C   0  0  0  0  0  0  0  0  0  0  0  0
    4.9194   -1.1160   -0.4271 C   0  0  0  0  0  0  0  0  0  0  0  0
    4.3213   -0.0212   -1.0564 O   0  0  0  0  0  0  0  0  0  0  0  0
    3.8457    1.0809   -0.3189 C   0  0  0  0  0  0  0  0  0  0  0  0
    4.0047    0.9873    0.9230 O   0  0  0  0  0  0  0  0  0  0  0  0
    3.2419    2.1904   -0.9577 N   0  0  0  0  0  0  0  0  0  0  0  0
    3.1086    2.2016   -2.3924 C   0  0  0  0  0  0  0  0  0  0  0  0
    4.2789    2.8078   -3.0679 C   0  0  0  0  0  0  0  0  0  0  0  0
    5.2672    3.2608   -2.4433 O   0  0  0  0  0  0  0  0  0  0  0  0
    4.2798    2.8763   -4.4489 O   0  0  0  0  0  0  0  0  0  0  0  0
    2.7640    3.2967   -0.1701 C   0  0  0  0  0  0  0  0  0  0  0  0
    1.3538    3.1727    0.2443 C   0  0  0  0  0  0  0  0  0  0  0  0
    1.0300    2.5716    1.4425 C   0  0  0  0  0  0  0  0  0  0  0  0
   -0.2638    2.4287    1.8705 C   0  0  0  0  0  0  0  0  0  0  0  0
   -1.3210    2.9068    1.0722 C   0  0  0  0  0  0  0  0  0  0  0  0
   -2.5999    2.7384    1.5522 O   0  0  0  0  0  0  0  0  0  0  0  0
   -3.8177    3.0513    1.0550 C   0  0  0  0  0  0  0  0  0  0  0  0
   -4.2321    2.3331   -0.1715 C   0  0  0  0  0  0  0  0  0  0  0  0
   -4.3693    0.8873    0.0689 C   0  0  0  0  0  0  0  0  0  0  0  0
   -5.5643    0.2864    0.3582 N   0  0  0  0  0  0  0  0  0  0  0  0
   -5.3393   -1.0173    0.5455 C   0  0  0  0  0  0  0  0  0  0  0  0
   -6.3334   -2.0509    0.8777 C   0  0  0  0  0  0  0  0  0  0  0  0
   -5.9469   -3.3636    1.0428 C   0  0  0  0  0  0  0  0  0  0  0  0
   -6.9072   -4.3306    1.3578 C   0  0  0  0  0  0  0  0  0  0  0  0
   -8.2409   -4.0201    1.5116 C   0  0  0  0  0  0  0  0  0  0  0  0
   -9.1976   -4.9843    1.8256 O   0  0  0  0  0  0  0  0  0  0  0  0
   -8.6131   -2.7035    1.3435 C   0  0  0  0  0  0  0  0  0  0  0  0
   -7.6637   -1.7263    1.0285 C   0  0  0  0  0  0  0  0  0  0  0  0
   -4.0644   -1.2232    0.3810 O   0  0  0  0  0  0  0  0  0  0  0  0
   -3.4398   -0.0820    0.0880 C   0  0  0  0  0  0  0  0  0  0  0  0
   -1.9795   -0.0347   -0.1531 C   0  0  0  0  0  0  0  0  0  0  0  0
   -0.9817    3.5042   -0.1194 C   0  0  0  0  0  0  0  0  0  0  0  0
    0.3356    3.6479   -0.5523 C   0  0  0  0  0  0  0  0  0  0  0  0
    6.2949   -1.0936   -0.2294 C   0  0  0  0  0  0  0  0  0  0  0  0
    6.9720   -2.1142    0.3751 C   0  0  0  0  0  0  0  0  0  0  0  0
    8.7537   -5.0124    2.2297 H   0  0  0  0  0  0  0  0  0  0  0  0
    8.5871   -3.1863    2.0599 H   0  0  0  0  0  0  0  0  0  0  0  0
    8.8567   -4.2126    0.6026 H   0  0  0  0  0  0  0  0  0  0  0  0
    4.4055   -4.1432    0.9838 H   0  0  0  0  0  0  0  0  0  0  0  0
    3.1629   -2.2570   -0.1325 H   0  0  0  0  0  0  0  0  0  0  0  0
    2.1508    2.6497   -2.7293 H   0  0  0  0  0  0  0  0  0  0  0  0
    3.0696    1.1307   -2.7298 H   0  0  0  0  0  0  0  0  0  0  0  0
    4.9590    3.4073   -4.9946 H   0  0  0  0  0  0  0  0  0  0  0  0
    2.9425    4.2471   -0.7467 H   0  0  0  0  0  0  0  0  0  0  0  0
    3.4513    3.3812    0.7162 H   0  0  0  0  0  0  0  0  0  0  0  0
    1.8319    2.1989    2.0708 H   0  0  0  0  0  0  0  0  0  0  0  0
   -0.5062    1.9553    2.8129 H   0  0  0  0  0  0  0  0  0  0  0  0
   -3.9023    4.1720    0.8673 H   0  0  0  0  0  0  0  0  0  0  0  0
   -4.5873    2.9035    1.8783 H   0  0  0  0  0  0  0  0  0  0  0  0
   -3.5830    2.5112   -1.0702 H   0  0  0  0  0  0  0  0  0  0  0  0
   -5.2275    2.7667   -0.4998 H   0  0  0  0  0  0  0  0  0  0  0  0
   -4.9059   -3.6062    0.9223 H   0  0  0  0  0  0  0  0  0  0  0  0
   -6.5955   -5.3574    1.4856 H   0  0  0  0  0  0  0  0  0  0  0  0
   -9.9624   -5.2374    1.2462 H   0  0  0  0  0  0  0  0  0  0  0  0
   -9.6662   -2.4495    1.4632 H   0  0  0  0  0  0  0  0  0  0  0  0
   -7.9691   -0.6844    0.8969 H   0  0  0  0  0  0  0  0  0  0  0  0
   -1.7788    0.7973   -0.8520 H   0  0  0  0  0  0  0  0  0  0  0  0
   -1.6218   -0.9742   -0.6603 H   0  0  0  0  0  0  0  0  0  0  0  0
   -1.4042    0.0043    0.7918 H   0  0  0  0  0  0  0  0  0  0  0  0
   -1.7804    3.8932   -0.7423 H   0  0  0  0  0  0  0  0  0  0  0  0
    0.5237    4.1381   -1.5198 H   0  0  0  0  0  0  0  0  0  0  0  0
    6.8282   -0.2212   -0.5777 H   0  0  0  0  0  0  0  0  0  0  0  0
    8.0451   -2.0077    0.4856 H   0  0  0  0  0  0  0  0  0  0  0  0
  1  2  1  0
  2  3  1  0
  3  4  2  0
  4  5  1  0
  5  6  2  0
  6  7  1  0
  7  8  1  0
  8  9  2  0
  8 10  1  0
 10 11  1  0
 11 12  1  0
 12 13  2  0
 12 14  1  0
 10 15  1  0
 15 16  1  0
 16 17  2  0
 17 18  1  0
 18 19  2  0
 19 20  1  0
 20 21  1  0
 21 22  1  0
 22 23  1  0
 23 24  1  0
 24 25  2  0
 25 26  1  0
 26 27  2  0
 27 28  1  0
 28 29  2  0
 29 30  1  0
 29 31  1  0
 31 32  2  0
 25 33  1  0
 33 34  1  0
 34 35  1  0
 19 36  1  0
 36 37  2  0
  6 38  1  0
 38 39  2  0
 39  3  1  0
 37 16  1  0
 34 23  2  0
 32 26  1  0
  1 40  1  0
  1 41  1  0
  1 42  1  0
  4 43  1  0
  5 44  1  0
 11 45  1  0
 11 46  1  0
 14 47  1  0
 15 48  1  0
 15 49  1  0
 17 50  1  0
 18 51  1  0
 21 52  1  0
 21 53  1  0
 22 54  1  0
 22 55  1  0
 27 56  1  0
 28 57  1  0
 30 58  1  0
 31 59  1  0
 32 60  1  0
 35 61  1  0
 35 62  1  0
 35 63  1  0
 36 64  1  0
 37 65  1  0
 38 66  1  0
 39 67  1  0
M  END
$$$$
