@<TRIPOS>MOLECULE
*****
 28 27 0 0 0
SMALL
GASTEIGER

@<TRIPOS>ATOM
      1 N          -3.7937   -1.4164    0.2737 N.3     1  UNL1       -0.3184
      2 CA         -2.5281   -0.6807    0.3497 C.3     1  UNL1        0.1033
      3 C          -1.9210   -0.6063   -1.0454 C.3     1  UNL1       -0.0245
      4 C          -0.6117    0.1441   -1.0198 C.3     1  UNL1       -0.0203
      5 C           0.4244   -0.4757   -0.1390 C.3     1  UNL1        0.0649
      6 N           1.6060    0.3934   -0.2519 N.pl3   1  UNL1       -0.2715
      7 C           2.7490    0.0413    0.4847 C.cat   1  UNL1        0.4399
      8 N           2.9928   -1.1427    0.9169 N.pl3   1  UNL1       -0.1250
      9 N           3.7558    1.0162    0.8148 N.pl3   1  UNL1        0.0247
     10 N           5.0319    0.7104    1.3028 N.pl3   1  UNL1        0.2321
     11 O           6.0004    1.2444    0.4581 O.co2   1  UNL1       -0.5417
     12 O           5.3347    0.0594    2.3358 O.2     1  UNL1        0.0837
     13 C          -2.8853    0.6727    0.8432 C.2     1  UNL1        0.3217
     14 O          -2.7280    1.9896    1.2568 O.3     1  UNL1       -0.4795
     15 OXT        -4.1147    0.8345    1.0586 O.2     1  UNL1       -0.2493
     16 H1         -4.2443   -1.1109   -0.6377 H       1  UNL1        0.1190
     17 H2         -3.5026   -2.4295    0.1526 H       1  UNL1        0.1190
     18 HA         -1.8331   -1.1872    1.0264 H       1  UNL1        0.0574
     19 H          -1.8574   -1.6083   -1.5067 H       1  UNL1        0.0286
     20 H          -2.6225   -0.0079   -1.6635 H       1  UNL1        0.0286
     21 H          -0.8365    1.1464   -0.5964 H       1  UNL1        0.0296
     22 H          -0.2059    0.2235   -2.0401 H       1  UNL1        0.0296
     23 H           0.6972   -1.4937   -0.4577 H       1  UNL1        0.0655
     24 H           0.1631   -0.4607    0.9336 H       1  UNL1        0.0655
     25 H           1.6514    1.2694   -0.8538 H       1  UNL1        0.2580
     26 H           2.3124   -1.9033    0.7190 H       1  UNL1        0.3064
     27 H           3.4940    2.0338    0.6716 H       1  UNL1        0.3477
     28 H          -2.5284    2.7440    0.5914 H       1  UNL1        0.2951
@<TRIPOS>UNITY_ATOM_ATTR
10 1
charge 1
11 1
charge -1
@<TRIPOS>BOND
     1     1     2    1
     2     2     3    1
     3     3     4    1
     4     4     5    1
     5     5     6    1
     6     6     7    1
     7     7     8    2
     8     7     9    1
     9     9    10    1
    10    10    11    1
    11    10    12    2
    12     2    13    1
    13    13    14    1
    14    13    15    2
    15     1    16    1
    16     1    17    1
    17     2    18    1
    18     3    19    1
    19     3    20    1
    20     4    21    1
    21     4    22    1
    22     5    23    1
    23     5    24    1
    24     6    25    1
    25     8    26    1
    26     9    27    1
    27    14    28    1
