@<TRIPOS>MOLECULE
*****
 49 51 0 0 0
SMALL
GASTEIGER

@<TRIPOS>ATOM
      1 C          -1.7460    3.4435   -1.5053 C.3     1  UNL1        0.0788
      2 O          -2.1941    2.3925   -0.7063 O.3     1  UNL1       -0.4947
      3 C          -1.4248    1.3942   -0.1654 C.ar    1  UNL1        0.1285
      4 C          -0.0663    1.3373   -0.3745 C.ar    1  UNL1       -0.0116
      5 C           0.7131    0.3119    0.1836 C.ar    1  UNL1       -0.0090
      6 C           2.1508    0.2802   -0.0213 C.ar    1  UNL1        0.0065
      7 C           2.9562    1.3570    0.3529 C.ar    1  UNL1        0.0159
      8 N           4.2869    1.3287    0.2054 N.ar    1  UNL1       -0.3171
      9 C           5.1164    2.4754    0.6070 C.3     1  UNL1        0.0147
     10 C           4.8421    0.2333   -0.3157 C.ar    1  UNL1        0.2603
     11 O           6.1106    0.2172   -0.4511 O.2     1  UNL1       -0.2670
     12 C           4.1364   -0.8954   -0.7231 C.ar    1  UNL1        0.0653
     13 C           4.7622   -1.9821   -1.2584 C.ar    1  UNL1        0.0405
     14 N           4.0237   -3.0324   -1.6414 N.ar    1  UNL1       -0.2625
     15 C           2.6858   -3.0286   -1.5062 C.ar    1  UNL1        0.0282
     16 C           2.0237   -1.9404   -0.9663 C.ar    1  UNL1       -0.0351
     17 C           2.7446   -0.8380   -0.5572 C.ar    1  UNL1       -0.0007
     18 C           0.0156   -0.6069    0.9390 C.ar    1  UNL1       -0.0116
     19 C          -1.3362   -0.5820    1.1683 C.ar    1  UNL1        0.1285
     20 O          -1.9780   -1.5496    1.9466 O.3     1  UNL1       -0.4947
     21 C          -1.1837   -2.5808    2.5064 C.3     1  UNL1        0.0788
     22 C          -2.0790    0.4347    0.6091 C.ar    1  UNL1        0.0497
     23 C          -3.5312    0.4654    0.8531 C.3     1  UNL1        0.0304
     24 N          -4.3007    0.0220   -0.2822 N.3     1  UNL1       -0.3039
     25 C          -5.7118    0.0872    0.0581 C.3     1  UNL1       -0.0127
     26 C          -3.9781   -1.3714   -0.5307 C.3     1  UNL1       -0.0127
     27 H          -0.6898    3.7415   -1.3173 H       1  UNL1        0.0660
     28 H          -1.8204    3.1326   -2.5696 H       1  UNL1        0.0660
     29 H          -2.3438    4.3729   -1.3921 H       1  UNL1        0.0660
     30 H           0.4514    2.0780   -0.9748 H       1  UNL1        0.0660
     31 H           2.4484    2.2042    0.7630 H       1  UNL1        0.0816
     32 H           4.8000    3.3885    0.0398 H       1  UNL1        0.0457
     33 H           6.1764    2.2977    0.3369 H       1  UNL1        0.0457
     34 H           5.0869    2.6295    1.7043 H       1  UNL1        0.0457
     35 H           5.8381   -1.9628   -1.3573 H       1  UNL1        0.0837
     36 H           2.1398   -3.9034   -1.8318 H       1  UNL1        0.0830
     37 H           0.9507   -1.9182   -0.8636 H       1  UNL1        0.0639
     38 H           0.5973   -1.4102    1.3958 H       1  UNL1        0.0660
     39 H          -1.8558   -3.1501    3.1907 H       1  UNL1        0.0660
     40 H          -0.3300   -2.1214    3.0671 H       1  UNL1        0.0660
     41 H          -0.7270   -3.2329    1.7439 H       1  UNL1        0.0660
     42 H          -3.7560   -0.1319    1.7576 H       1  UNL1        0.0478
     43 H          -3.8849    1.5082    1.1105 H       1  UNL1        0.0478
     44 H          -6.1744    0.8179   -0.6235 H       1  UNL1        0.0391
     45 H          -6.2191   -0.8913   -0.0435 H       1  UNL1        0.0391
     46 H          -5.8718    0.4271    1.1041 H       1  UNL1        0.0391
     47 H          -2.9152   -1.5393   -0.7535 H       1  UNL1        0.0391
     48 H          -4.6185   -1.6751   -1.4042 H       1  UNL1        0.0391
     49 H          -4.3206   -2.0346    0.3109 H       1  UNL1        0.0391
@<TRIPOS>BOND
     1     1     2    1
     2     2     3    1
     3     3     4   ar
     4     4     5   ar
     5     5     6    1
     6     6     7   ar
     7     7     8   ar
     8     8     9    1
     9     8    10   ar
    10    10    11    2
    11    10    12   ar
    12    12    13   ar
    13    13    14   ar
    14    14    15   ar
    15    15    16   ar
    16    16    17   ar
    17     5    18   ar
    18    18    19   ar
    19    19    20    1
    20    20    21    1
    21    19    22   ar
    22    22    23    1
    23    23    24    1
    24    24    25    1
    25    24    26    1
    26    22     3   ar
    27    17     6   ar
    28    17    12   ar
    29     1    27    1
    30     1    28    1
    31     1    29    1
    32     4    30    1
    33     7    31    1
    34     9    32    1
    35     9    33    1
    36     9    34    1
    37    13    35    1
    38    15    36    1
    39    16    37    1
    40    18    38    1
    41    21    39    1
    42    21    40    1
    43    21    41    1
    44    23    42    1
    45    23    43    1
    46    25    44    1
    47    25    45    1
    48    25    46    1
    49    26    47    1
    50    26    48    1
    51    26    49    1
