@<TRIPOS>MOLECULE
*****
 56 58 0 0 0
SMALL
GASTEIGER

@<TRIPOS>ATOM
      1 N           3.7690    1.3805    1.3280 N.am    1  UNL1       -0.3251
      2 C           2.6195    0.6642    0.9728 C.2     1  UNL1        0.2491
      3 O           1.5056    1.1221    1.2526 O.2     1  UNL1       -0.2701
      4 C           2.7168   -0.6358    0.2663 C.ar    1  UNL1        0.1277
      5 C           3.9195   -1.1631   -0.0574 C.ar    1  UNL1        0.2370
      6 O           5.1860   -0.5625    0.2259 O.3     1  UNL1       -0.4705
      7 C           6.3346   -1.2522   -0.1827 C.3     1  UNL1        0.1216
      8 C           7.5770   -0.5445    0.1573 C.ar    1  UNL1        0.0600
      9 C           7.9437    0.5445   -0.6101 C.ar    1  UNL1        0.1336
     10 F           7.1711    0.9592   -1.6604 F       1  UNL1       -0.2050
     11 C           9.0986    1.2638   -0.3590 C.ar    1  UNL1       -0.0119
     12 C           9.8746    0.8443    0.6986 C.ar    1  UNL1        0.0233
     13 BR         11.4717    1.8178    1.0668 Br      1  UNL1       -0.0501
     14 C           9.5457   -0.2327    1.4857 C.ar    1  UNL1       -0.0119
     15 C           8.3778   -0.9366    1.2086 C.ar    1  UNL1        0.1336
     16 F           7.9909   -2.0071    1.9408 F       1  UNL1       -0.2050
     17 N           3.9356   -2.3543   -0.7015 N.ar    1  UNL1       -0.1724
     18 S           2.1514   -2.7524   -0.8592 S.2     1  UNL1        0.0315
     19 C           1.6116   -1.3225   -0.0694 C.ar    1  UNL1        0.1089
     20 N           0.2115   -0.9473    0.1776 N.am    1  UNL1       -0.2619
     21 C          -0.4664   -0.1805   -0.8092 C.2     1  UNL1        0.3043
     22 O           0.1838    0.1376   -1.8513 O.2     1  UNL1       -0.2525
     23 N          -1.8020    0.2402   -0.6966 N.am    1  UNL1       -0.2991
     24 C          -2.3751    1.0172   -1.7751 C.3     1  UNL1        0.0131
     25 C          -3.8072    1.3329   -1.4110 C.3     1  UNL1       -0.0362
     26 C          -4.6540    0.0926   -1.2165 C.3     1  UNL1       -0.0388
     27 C          -6.0442    0.4763   -0.8662 C.3     1  UNL1       -0.0011
     28 N          -6.9702   -0.5530   -0.6485 N.3     1  UNL1       -0.3023
     29 C          -8.2645    0.0782   -0.3287 C.3     1  UNL1       -0.0011
     30 C          -8.1448    0.4223    1.1604 C.3     1  UNL1       -0.0390
     31 C          -7.0074   -0.4458    1.6557 C.3     1  UNL1       -0.0390
     32 C          -6.7899   -1.3669    0.5108 C.3     1  UNL1       -0.0011
     33 H           3.8671    1.6922    2.3273 H       1  UNL1        0.1453
     34 H           4.5486    1.6398    0.6938 H       1  UNL1        0.1453
     35 H           6.3434   -1.4135   -1.3005 H       1  UNL1        0.0750
     36 H           6.3427   -2.3025    0.2298 H       1  UNL1        0.0750
     37 H           9.3793    2.1138   -0.9634 H       1  UNL1        0.0657
     38 H          10.1547   -0.5649    2.3182 H       1  UNL1        0.0657
     39 H          -0.2786   -1.2227    1.0326 H       1  UNL1        0.1569
     40 H          -2.3132   -0.0323    0.1691 H       1  UNL1        0.1502
     41 H          -1.8677    2.0162   -1.8691 H       1  UNL1        0.0462
     42 H          -2.3586    0.4753   -2.7428 H       1  UNL1        0.0462
     43 H          -3.7686    1.9549   -0.4911 H       1  UNL1        0.0281
     44 H          -4.2747    2.0028   -2.1909 H       1  UNL1        0.0281
     45 H          -4.1444   -0.5577   -0.5175 H       1  UNL1        0.0278
     46 H          -4.6356   -0.4353   -2.2160 H       1  UNL1        0.0278
     47 H          -5.9867    1.1522    0.0376 H       1  UNL1        0.0426
     48 H          -6.4302    1.1394   -1.6759 H       1  UNL1        0.0426
     49 H          -9.0997   -0.5935   -0.5251 H       1  UNL1        0.0426
     50 H          -8.3392    1.0454   -0.8628 H       1  UNL1        0.0426
     51 H          -9.0795    0.1437    1.6455 H       1  UNL1        0.0278
     52 H          -7.9360    1.5003    1.3081 H       1  UNL1        0.0278
     53 H          -7.3555   -0.9630    2.5835 H       1  UNL1        0.0278
     54 H          -6.1151    0.1384    1.9494 H       1  UNL1        0.0278
     55 H          -5.8790   -1.9575    0.5388 H       1  UNL1        0.0426
     56 H          -7.6438   -2.1084    0.5162 H       1  UNL1        0.0426
@<TRIPOS>BOND
     1     1     2   am
     2     2     3    2
     3     2     4    1
     4     4     5   ar
     5     5     6    1
     6     6     7    1
     7     7     8    1
     8     8     9   ar
     9     9    10    1
    10     9    11   ar
    11    11    12   ar
    12    12    13    1
    13    12    14   ar
    14    14    15   ar
    15    15    16    1
    16     5    17   ar
    17    17    18   ar
    18    18    19   ar
    19    19    20    1
    20    20    21   am
    21    21    22    2
    22    21    23   am
    23    23    24    1
    24    24    25    1
    25    25    26    1
    26    26    27    1
    27    27    28    1
    28    28    29    1
    29    29    30    1
    30    30    31    1
    31    31    32    1
    32    19     4   ar
    33    32    28    1
    34    15     8   ar
    35     1    33    1
    36     1    34    1
    37     7    35    1
    38     7    36    1
    39    11    37    1
    40    14    38    1
    41    20    39    1
    42    23    40    1
    43    24    41    1
    44    24    42    1
    45    25    43    1
    46    25    44    1
    47    26    45    1
    48    26    46    1
    49    27    47    1
    50    27    48    1
    51    29    49    1
    52    29    50    1
    53    30    51    1
    54    30    52    1
    55    31    53    1
    56    31    54    1
    57    32    55    1
    58    32    56    1
