@<TRIPOS>MOLECULE
*****
 33 35 0 0 0
SMALL
GASTEIGER

@<TRIPOS>ATOM
      1 O          -1.5490   -0.3470    4.1346 O.3     1  UNL1       -0.4788
      2 C          -0.8149   -0.6190    2.9874 C.2     1  UNL1        0.3387
      3 OXT         0.4132   -0.3798    3.1860 O.2     1  UNL1       -0.2480
      4 CA         -1.5508   -1.1028    1.8295 C.3     1  UNL1        0.2230
      5 N          -0.7079   -1.3617    0.6753 N.2     1  UNL1       -0.2586
      6 C          -0.0909   -0.5290   -0.1018 C.2     1  UNL1        0.0760
      7 C           0.6802   -1.0898   -1.1901 C.ar    1  UNL1        0.0006
      8 C           0.8036   -2.4742   -1.1443 C.ar    1  UNL1       -0.0526
      9 C           1.4238   -3.2505   -2.0921 C.ar    1  UNL1       -0.0611
     10 C           1.9850   -2.6624   -3.1955 C.ar    1  UNL1       -0.0617
     11 C           1.8964   -1.2925   -3.3026 C.ar    1  UNL1       -0.0611
     12 C           1.2601   -0.5835   -2.3158 C.ar    1  UNL1       -0.0526
     13 C          -0.0845    0.9388    0.1005 C.ar    1  UNL1        0.0231
     14 C          -1.1754    1.7251    0.5006 C.ar    1  UNL1        0.0428
     15 N          -2.4783    1.2239    0.8929 N.am    1  UNL1       -0.2827
     16 C          -2.6139   -0.0898    1.4996 C.2     1  UNL1        0.2529
     17 O          -3.8590   -0.2658    1.7262 O.2     1  UNL1       -0.2725
     18 C          -0.9892    3.1020    0.5898 C.ar    1  UNL1       -0.0385
     19 C           0.2437    3.6041    0.2852 C.ar    1  UNL1       -0.0416
     20 C           1.3123    2.8058   -0.1059 C.ar    1  UNL1        0.0417
     21 CL          2.8721    3.4599   -0.4893 Cl      1  UNL1       -0.0835
     22 C           1.1911    1.4376   -0.2131 C.ar    1  UNL1       -0.0324
     23 H          -1.1794   -0.3800    5.0795 H       1  UNL1        0.2951
     24 HA         -2.1024   -2.0215    2.0970 H       1  UNL1        0.0760
     25 H           0.4049   -3.0888   -0.3224 H       1  UNL1        0.0624
     26 H           1.5126   -4.3257   -2.0439 H       1  UNL1        0.0618
     27 H           2.4989   -3.1418   -4.0102 H       1  UNL1        0.0618
     28 H           2.3043   -0.7317   -4.1305 H       1  UNL1        0.0618
     29 H           1.1448    0.4820   -2.4312 H       1  UNL1        0.0624
     30 H          -3.2120    1.9189    0.6847 H       1  UNL1        0.1549
     31 H          -1.8728    3.6126    0.8982 H       1  UNL1        0.0637
     32 H           0.3566    4.6724    0.3626 H       1  UNL1        0.0633
     33 H           1.9767    0.7544   -0.4703 H       1  UNL1        0.0639
@<TRIPOS>BOND
     1     1     2    1
     2     2     3    2
     3     2     4    1
     4     4     5    1
     5     5     6    2
     6     6     7    1
     7     7     8   ar
     8     8     9   ar
     9     9    10   ar
    10    10    11   ar
    11    11    12   ar
    12     6    13    1
    13    13    14   ar
    14    14    15    1
    15    15    16   am
    16    16    17    2
    17    14    18   ar
    18    18    19   ar
    19    19    20   ar
    20    20    21    1
    21    20    22   ar
    22    16     4    1
    23    12     7   ar
    24    22    13   ar
    25     1    23    1
    26     4    24    1
    27     8    25    1
    28     9    26    1
    29    10    27    1
    30    11    28    1
    31    12    29    1
    32    15    30    1
    33    18    31    1
    34    19    32    1
    35    22    33    1
