
     RDKit          3D

 33 35  0  0  0  0  0  0  0  0999 V2000
   -1.5490   -0.3470    4.1346 O   0  0  0  0  0  0  0  0  0  0  0  0
   -0.8149   -0.6190    2.9874 C   0  0  0  0  0  0  0  0  0  0  0  0
    0.4132   -0.3798    3.1860 O   0  0  0  0  0  0  0  0  0  0  0  0
   -1.5508   -1.1028    1.8295 C   0  0  0  0  0  0  0  0  0  0  0  0
   -0.7079   -1.3617    0.6753 N   0  0  0  0  0  0  0  0  0  0  0  0
   -0.0909   -0.5290   -0.1018 C   0  0  0  0  0  0  0  0  0  0  0  0
    0.6802   -1.0898   -1.1901 C   0  0  0  0  0  0  0  0  0  0  0  0
    0.8036   -2.4742   -1.1443 C   0  0  0  0  0  0  0  0  0  0  0  0
    1.4238   -3.2505   -2.0921 C   0  0  0  0  0  0  0  0  0  0  0  0
    1.9850   -2.6624   -3.1955 C   0  0  0  0  0  0  0  0  0  0  0  0
    1.8964   -1.2925   -3.3026 C   0  0  0  0  0  0  0  0  0  0  0  0
    1.2601   -0.5835   -2.3158 C   0  0  0  0  0  0  0  0  0  0  0  0
   -0.0845    0.9388    0.1005 C   0  0  0  0  0  0  0  0  0  0  0  0
   -1.1754    1.7251    0.5006 C   0  0  0  0  0  0  0  0  0  0  0  0
   -2.4783    1.2239    0.8929 N   0  0  0  0  0  0  0  0  0  0  0  0
   -2.6139   -0.0898    1.4996 C   0  0  0  0  0  0  0  0  0  0  0  0
   -3.8590   -0.2658    1.7262 O   0  0  0  0  0  0  0  0  0  0  0  0
   -0.9892    3.1020    0.5898 C   0  0  0  0  0  0  0  0  0  0  0  0
    0.2437    3.6041    0.2852 C   0  0  0  0  0  0  0  0  0  0  0  0
    1.3123    2.8058   -0.1059 C   0  0  0  0  0  0  0  0  0  0  0  0
    2.8721    3.4599   -0.4893 Cl  0  0  0  0  0  0  0  0  0  0  0  0
    1.1911    1.4376   -0.2131 C   0  0  0  0  0  0  0  0  0  0  0  0
   -1.1794   -0.3800    5.0795 H   0  0  0  0  0  0  0  0  0  0  0  0
   -2.1024   -2.0215    2.0970 H   0  0  0  0  0  0  0  0  0  0  0  0
    0.4049   -3.0888   -0.3224 H   0  0  0  0  0  0  0  0  0  0  0  0
    1.5126   -4.3257   -2.0439 H   0  0  0  0  0  0  0  0  0  0  0  0
    2.4989   -3.1418   -4.0102 H   0  0  0  0  0  0  0  0  0  0  0  0
    2.3043   -0.7317   -4.1305 H   0  0  0  0  0  0  0  0  0  0  0  0
    1.1448    0.4820   -2.4312 H   0  0  0  0  0  0  0  0  0  0  0  0
   -3.2120    1.9189    0.6847 H   0  0  0  0  0  0  0  0  0  0  0  0
   -1.8728    3.6126    0.8982 H   0  0  0  0  0  0  0  0  0  0  0  0
    0.3566    4.6724    0.3626 H   0  0  0  0  0  0  0  0  0  0  0  0
    1.9767    0.7544   -0.4703 H   0  0  0  0  0  0  0  0  0  0  0  0
  1  2  1  0
  2  3  2  0
  2  4  1  0
  4  5  1  0
  5  6  2  0
  6  7  1  0
  7  8  2  0
  8  9  1  0
  9 10  2  0
 10 11  1  0
 11 12  2  0
  6 13  1  0
 13 14  2  0
 14 15  1  0
 15 16  1  0
 16 17  2  0
 14 18  1  0
 18 19  2  0
 19 20  1  0
 20 21  1  0
 20 22  2  0
 16  4  1  0
 12  7  1  0
 22 13  1  0
  1 23  1  0
  4 24  1  0
  8 25  1  0
  9 26  1  0
 10 27  1  0
 11 28  1  0
 12 29  1  0
 15 30  1  0
 18 31  1  0
 19 32  1  0
 22 33  1  0
M  END
$$$$
