@<TRIPOS>MOLECULE
*****
 76 80 0 0 0
SMALL
GASTEIGER

@<TRIPOS>ATOM
      1 C          -7.0902   -1.1133   -5.6059 C.3     1  UNL1       -0.0397
      2 C          -6.5979   -0.7524   -4.2386 C.ar    1  UNL1       -0.0503
      3 C          -6.7515   -1.6046   -3.1678 C.ar    1  UNL1       -0.0568
      4 C          -6.2995   -1.2756   -1.9064 C.ar    1  UNL1       -0.0359
      5 C          -5.6703   -0.0688   -1.6665 C.ar    1  UNL1        0.0674
      6 N          -5.2155    0.2415   -0.3528 N.ar    1  UNL1       -0.2181
      7 N          -5.9069    0.6207    0.6990 N.ar    1  UNL1       -0.1691
      8 C          -5.1577    0.8273    1.7698 C.ar    1  UNL1        0.0706
      9 C          -5.6310    1.2654    3.1291 C.3     1  UNL1        0.0063
     10 C          -5.9421    0.0340    3.9171 C.3     1  UNL1       -0.0546
     11 C          -4.5953    2.1443    3.7733 C.3     1  UNL1       -0.0546
     12 C          -6.9389    2.0087    2.9017 C.3     1  UNL1       -0.0546
     13 C          -3.8524    0.5601    1.3904 C.ar    1  UNL1        0.0021
     14 C          -3.9101    0.1959    0.0612 C.ar    1  UNL1        0.1299
     15 N          -2.8479   -0.1722   -0.7877 N.am    1  UNL1       -0.2538
     16 C          -1.5237   -0.2134   -0.3546 C.2     1  UNL1        0.3092
     17 O          -1.2024    0.0727    0.8104 O.2     1  UNL1       -0.2521
     18 N          -0.4660   -0.5924   -1.2471 N.am    1  UNL1       -0.2686
     19 C           0.8839   -0.6310   -0.7949 C.ar    1  UNL1        0.0427
     20 C           1.7117    0.4735   -0.8766 C.ar    1  UNL1       -0.0364
     21 C           3.0294    0.4265   -0.4341 C.ar    1  UNL1       -0.0176
     22 C           3.5272   -0.7314    0.0948 C.ar    1  UNL1        0.1283
     23 O           4.8285   -0.8570    0.5566 O.3     1  UNL1       -0.4901
     24 C           5.6593    0.2918    0.4623 C.3     1  UNL1        0.1023
     25 C           7.0458    0.0142    0.9967 C.3     1  UNL1        0.0333
     26 N           7.8673    1.1984    0.8922 N.3     1  UNL1       -0.2948
     27 C           9.1888    0.9383    1.3938 C.3     1  UNL1        0.0225
     28 C          10.2123    0.8586    0.2788 C.3     1  UNL1        0.0604
     29 O          10.2975    2.0675   -0.3888 O.3     1  UNL1       -0.3772
     30 C           9.0753    2.5685   -0.7668 C.3     1  UNL1        0.0604
     31 C           7.9242    1.6019   -0.4832 C.3     1  UNL1        0.0225
     32 C           2.6971   -1.8241    0.1721 C.ar    1  UNL1        0.0256
     33 C           3.1976   -2.9911    0.7051 C.ar    1  UNL1       -0.0505
     34 C           2.4267   -4.1359    0.8185 C.ar    1  UNL1       -0.0611
     35 C           1.1233   -4.0640    0.3728 C.ar    1  UNL1       -0.0611
     36 C           0.5899   -2.9131   -0.1658 C.ar    1  UNL1       -0.0521
     37 C           1.3804   -1.7847   -0.2676 C.ar    1  UNL1        0.0069
     38 C          -5.5145    0.7877   -2.7366 C.ar    1  UNL1       -0.0359
     39 C          -5.9711    0.4536   -4.0075 C.ar    1  UNL1       -0.0568
     40 H          -6.4693   -0.5837   -6.3458 H       1  UNL1        0.0278
     41 H          -6.9918   -2.1956   -5.7956 H       1  UNL1        0.0278
     42 H          -8.1402   -0.7422   -5.7491 H       1  UNL1        0.0278
     43 H          -7.2467   -2.5513   -3.3619 H       1  UNL1        0.0621
     44 H          -6.4336   -1.9698   -1.0716 H       1  UNL1        0.0639
     45 H          -5.3480   -0.0006    4.8654 H       1  UNL1        0.0239
     46 H          -7.0119   -0.0402    4.1977 H       1  UNL1        0.0239
     47 H          -5.7017   -0.9033    3.3516 H       1  UNL1        0.0239
     48 H          -3.8831    2.5881    3.0506 H       1  UNL1        0.0239
     49 H          -4.1124    1.5915    4.5939 H       1  UNL1        0.0239
     50 H          -5.1543    3.0096    4.2387 H       1  UNL1        0.0239
     51 H          -7.4233    2.2590    3.8707 H       1  UNL1        0.0239
     52 H          -6.8066    2.8937    2.2710 H       1  UNL1        0.0239
     53 H          -7.5991    1.3114    2.3425 H       1  UNL1        0.0239
     54 H          -3.0058    0.6366    2.0388 H       1  UNL1        0.0671
     55 H          -3.0438   -0.4242   -1.7745 H       1  UNL1        0.1578
     56 H          -0.6414   -0.8493   -2.2422 H       1  UNL1        0.1564
     57 H           1.3417    1.4005   -1.2907 H       1  UNL1        0.0637
     58 H           3.6869    1.2983   -0.4972 H       1  UNL1        0.0655
     59 H           5.7937    0.5882   -0.6192 H       1  UNL1        0.0709
     60 H           5.2126    1.1555    0.9896 H       1  UNL1        0.0709
     61 H           7.4898   -0.8553    0.5055 H       1  UNL1        0.0460
     62 H           6.9820   -0.2238    2.0987 H       1  UNL1        0.0460
     63 H           9.5147    1.7382    2.1004 H       1  UNL1        0.0449
     64 H           9.1684   -0.0208    1.9455 H       1  UNL1        0.0449
     65 H           9.8577    0.0833   -0.4479 H       1  UNL1        0.0572
     66 H          11.2196    0.6101    0.6625 H       1  UNL1        0.0572
     67 H           8.9141    3.5360   -0.2548 H       1  UNL1        0.0572
     68 H           9.0273    2.7452   -1.8796 H       1  UNL1        0.0572
     69 H           7.0020    2.2222   -0.6836 H       1  UNL1        0.0449
     70 H           7.9146    0.7654   -1.1795 H       1  UNL1        0.0449
     71 H           4.2231   -3.0461    1.0554 H       1  UNL1        0.0625
     72 H           2.8501   -5.0514    1.2467 H       1  UNL1        0.0618
     73 H           0.5082   -4.9525    0.4553 H       1  UNL1        0.0618
     74 H          -0.4237   -2.8387   -0.5184 H       1  UNL1        0.0624
     75 H          -5.0185    1.7361   -2.5410 H       1  UNL1        0.0639
     76 H          -5.8328    1.1539   -4.8365 H       1  UNL1        0.0621
@<TRIPOS>BOND
     1     1     2    1
     2     2     3   ar
     3     3     4   ar
     4     4     5   ar
     5     5     6    1
     6     6     7   ar
     7     7     8   ar
     8     8     9    1
     9     9    10    1
    10     9    11    1
    11     9    12    1
    12     8    13   ar
    13    13    14   ar
    14    14    15    1
    15    15    16   am
    16    16    17    2
    17    16    18   am
    18    18    19    1
    19    19    20   ar
    20    20    21   ar
    21    21    22   ar
    22    22    23    1
    23    23    24    1
    24    24    25    1
    25    25    26    1
    26    26    27    1
    27    27    28    1
    28    28    29    1
    29    29    30    1
    30    30    31    1
    31    22    32   ar
    32    32    33   ar
    33    33    34   ar
    34    34    35   ar
    35    35    36   ar
    36    36    37   ar
    37     5    38   ar
    38    38    39   ar
    39    39     2   ar
    40    14     6   ar
    41    37    19   ar
    42    31    26    1
    43    37    32   ar
    44     1    40    1
    45     1    41    1
    46     1    42    1
    47     3    43    1
    48     4    44    1
    49    10    45    1
    50    10    46    1
    51    10    47    1
    52    11    48    1
    53    11    49    1
    54    11    50    1
    55    12    51    1
    56    12    52    1
    57    12    53    1
    58    13    54    1
    59    15    55    1
    60    18    56    1
    61    20    57    1
    62    21    58    1
    63    24    59    1
    64    24    60    1
    65    25    61    1
    66    25    62    1
    67    27    63    1
    68    27    64    1
    69    28    65    1
    70    28    66    1
    71    30    67    1
    72    30    68    1
    73    31    69    1
    74    31    70    1
    75    33    71    1
    76    34    72    1
    77    35    73    1
    78    36    74    1
    79    38    75    1
    80    39    76    1
