
     RDKit          3D

 76 80  0  0  0  0  0  0  0  0999 V2000
   -7.0902   -1.1133   -5.6059 C   0  0  0  0  0  0  0  0  0  0  0  0
   -6.5979   -0.7524   -4.2386 C   0  0  0  0  0  0  0  0  0  0  0  0
   -6.7515   -1.6046   -3.1678 C   0  0  0  0  0  0  0  0  0  0  0  0
   -6.2995   -1.2756   -1.9064 C   0  0  0  0  0  0  0  0  0  0  0  0
   -5.6703   -0.0688   -1.6665 C   0  0  0  0  0  0  0  0  0  0  0  0
   -5.2155    0.2415   -0.3528 N   0  0  0  0  0  0  0  0  0  0  0  0
   -5.9069    0.6207    0.6990 N   0  0  0  0  0  0  0  0  0  0  0  0
   -5.1577    0.8273    1.7698 C   0  0  0  0  0  0  0  0  0  0  0  0
   -5.6310    1.2654    3.1291 C   0  0  0  0  0  0  0  0  0  0  0  0
   -5.9421    0.0340    3.9171 C   0  0  0  0  0  0  0  0  0  0  0  0
   -4.5953    2.1443    3.7733 C   0  0  0  0  0  0  0  0  0  0  0  0
   -6.9389    2.0087    2.9017 C   0  0  0  0  0  0  0  0  0  0  0  0
   -3.8524    0.5601    1.3904 C   0  0  0  0  0  0  0  0  0  0  0  0
   -3.9101    0.1959    0.0612 C   0  0  0  0  0  0  0  0  0  0  0  0
   -2.8479   -0.1722   -0.7877 N   0  0  0  0  0  0  0  0  0  0  0  0
   -1.5237   -0.2134   -0.3546 C   0  0  0  0  0  0  0  0  0  0  0  0
   -1.2024    0.0727    0.8104 O   0  0  0  0  0  0  0  0  0  0  0  0
   -0.4660   -0.5924   -1.2471 N   0  0  0  0  0  0  0  0  0  0  0  0
    0.8839   -0.6310   -0.7949 C   0  0  0  0  0  0  0  0  0  0  0  0
    1.7117    0.4735   -0.8766 C   0  0  0  0  0  0  0  0  0  0  0  0
    3.0294    0.4265   -0.4341 C   0  0  0  0  0  0  0  0  0  0  0  0
    3.5272   -0.7314    0.0948 C   0  0  0  0  0  0  0  0  0  0  0  0
    4.8285   -0.8570    0.5566 O   0  0  0  0  0  0  0  0  0  0  0  0
    5.6593    0.2918    0.4623 C   0  0  0  0  0  0  0  0  0  0  0  0
    7.0458    0.0142    0.9967 C   0  0  0  0  0  0  0  0  0  0  0  0
    7.8673    1.1984    0.8922 N   0  0  0  0  0  0  0  0  0  0  0  0
    9.1888    0.9383    1.3938 C   0  0  0  0  0  0  0  0  0  0  0  0
   10.2123    0.8586    0.2788 C   0  0  0  0  0  0  0  0  0  0  0  0
   10.2975    2.0675   -0.3888 O   0  0  0  0  0  0  0  0  0  0  0  0
    9.0753    2.5685   -0.7668 C   0  0  0  0  0  0  0  0  0  0  0  0
    7.9242    1.6019   -0.4832 C   0  0  0  0  0  0  0  0  0  0  0  0
    2.6971   -1.8241    0.1721 C   0  0  0  0  0  0  0  0  0  0  0  0
    3.1976   -2.9911    0.7051 C   0  0  0  0  0  0  0  0  0  0  0  0
    2.4267   -4.1359    0.8185 C   0  0  0  0  0  0  0  0  0  0  0  0
    1.1233   -4.0640    0.3728 C   0  0  0  0  0  0  0  0  0  0  0  0
    0.5899   -2.9131   -0.1658 C   0  0  0  0  0  0  0  0  0  0  0  0
    1.3804   -1.7847   -0.2676 C   0  0  0  0  0  0  0  0  0  0  0  0
   -5.5145    0.7877   -2.7366 C   0  0  0  0  0  0  0  0  0  0  0  0
   -5.9711    0.4536   -4.0075 C   0  0  0  0  0  0  0  0  0  0  0  0
   -6.4693   -0.5837   -6.3458 H   0  0  0  0  0  0  0  0  0  0  0  0
   -6.9918   -2.1956   -5.7956 H   0  0  0  0  0  0  0  0  0  0  0  0
   -8.1402   -0.7422   -5.7491 H   0  0  0  0  0  0  0  0  0  0  0  0
   -7.2467   -2.5513   -3.3619 H   0  0  0  0  0  0  0  0  0  0  0  0
   -6.4336   -1.9698   -1.0716 H   0  0  0  0  0  0  0  0  0  0  0  0
   -5.3480   -0.0006    4.8654 H   0  0  0  0  0  0  0  0  0  0  0  0
   -7.0119   -0.0402    4.1977 H   0  0  0  0  0  0  0  0  0  0  0  0
   -5.7017   -0.9033    3.3516 H   0  0  0  0  0  0  0  0  0  0  0  0
   -3.8831    2.5881    3.0506 H   0  0  0  0  0  0  0  0  0  0  0  0
   -4.1124    1.5915    4.5939 H   0  0  0  0  0  0  0  0  0  0  0  0
   -5.1543    3.0096    4.2387 H   0  0  0  0  0  0  0  0  0  0  0  0
   -7.4233    2.2590    3.8707 H   0  0  0  0  0  0  0  0  0  0  0  0
   -6.8066    2.8937    2.2710 H   0  0  0  0  0  0  0  0  0  0  0  0
   -7.5991    1.3114    2.3425 H   0  0  0  0  0  0  0  0  0  0  0  0
   -3.0058    0.6366    2.0388 H   0  0  0  0  0  0  0  0  0  0  0  0
   -3.0438   -0.4242   -1.7745 H   0  0  0  0  0  0  0  0  0  0  0  0
   -0.6414   -0.8493   -2.2422 H   0  0  0  0  0  0  0  0  0  0  0  0
    1.3417    1.4005   -1.2907 H   0  0  0  0  0  0  0  0  0  0  0  0
    3.6869    1.2983   -0.4972 H   0  0  0  0  0  0  0  0  0  0  0  0
    5.7937    0.5882   -0.6192 H   0  0  0  0  0  0  0  0  0  0  0  0
    5.2126    1.1555    0.9896 H   0  0  0  0  0  0  0  0  0  0  0  0
    7.4898   -0.8553    0.5055 H   0  0  0  0  0  0  0  0  0  0  0  0
    6.9820   -0.2238    2.0987 H   0  0  0  0  0  0  0  0  0  0  0  0
    9.5147    1.7382    2.1004 H   0  0  0  0  0  0  0  0  0  0  0  0
    9.1684   -0.0208    1.9455 H   0  0  0  0  0  0  0  0  0  0  0  0
    9.8577    0.0833   -0.4479 H   0  0  0  0  0  0  0  0  0  0  0  0
   11.2196    0.6101    0.6625 H   0  0  0  0  0  0  0  0  0  0  0  0
    8.9141    3.5360   -0.2548 H   0  0  0  0  0  0  0  0  0  0  0  0
    9.0273    2.7452   -1.8796 H   0  0  0  0  0  0  0  0  0  0  0  0
    7.0020    2.2222   -0.6836 H   0  0  0  0  0  0  0  0  0  0  0  0
    7.9146    0.7654   -1.1795 H   0  0  0  0  0  0  0  0  0  0  0  0
    4.2231   -3.0461    1.0554 H   0  0  0  0  0  0  0  0  0  0  0  0
    2.8501   -5.0514    1.2467 H   0  0  0  0  0  0  0  0  0  0  0  0
    0.5082   -4.9525    0.4553 H   0  0  0  0  0  0  0  0  0  0  0  0
   -0.4237   -2.8387   -0.5184 H   0  0  0  0  0  0  0  0  0  0  0  0
   -5.0185    1.7361   -2.5410 H   0  0  0  0  0  0  0  0  0  0  0  0
   -5.8328    1.1539   -4.8365 H   0  0  0  0  0  0  0  0  0  0  0  0
  1  2  1  0
  2  3  2  0
  3  4  1  0
  4  5  2  0
  5  6  1  0
  6  7  1  0
  7  8  2  0
  8  9  1  0
  9 10  1  0
  9 11  1  0
  9 12  1  0
  8 13  1  0
 13 14  2  0
 14 15  1  0
 15 16  1  0
 16 17  2  0
 16 18  1  0
 18 19  1  0
 19 20  2  0
 20 21  1  0
 21 22  2  0
 22 23  1  0
 23 24  1  0
 24 25  1  0
 25 26  1  0
 26 27  1  0
 27 28  1  0
 28 29  1  0
 29 30  1  0
 30 31  1  0
 22 32  1  0
 32 33  2  0
 33 34  1  0
 34 35  2  0
 35 36  1  0
 36 37  2  0
  5 38  1  0
 38 39  2  0
 39  2  1  0
 14  6  1  0
 37 19  1  0
 31 26  1  0
 37 32  1  0
  1 40  1  0
  1 41  1  0
  1 42  1  0
  3 43  1  0
  4 44  1  0
 10 45  1  0
 10 46  1  0
 10 47  1  0
 11 48  1  0
 11 49  1  0
 11 50  1  0
 12 51  1  0
 12 52  1  0
 12 53  1  0
 13 54  1  0
 15 55  1  0
 18 56  1  0
 20 57  1  0
 21 58  1  0
 24 59  1  0
 24 60  1  0
 25 61  1  0
 25 62  1  0
 27 63  1  0
 27 64  1  0
 28 65  1  0
 28 66  1  0
 30 67  1  0
 30 68  1  0
 31 69  1  0
 31 70  1  0
 33 71  1  0
 34 72  1  0
 35 73  1  0
 36 74  1  0
 38 75  1  0
 39 76  1  0
M  END
$$$$
