@<TRIPOS>MOLECULE
*****
 61 64 0 0 0
SMALL
GASTEIGER

@<TRIPOS>ATOM
      1 C          -0.4646   -1.7426   -3.8592 C.3     1  UNL1        0.0325
      2 N           0.6851   -1.4392   -3.0321 N.ar    1  UNL1       -0.2466
      3 N           1.9192   -1.1863   -3.3890 N.ar    1  UNL1       -0.1544
      4 C           2.6971   -0.9515   -2.3285 C.ar    1  UNL1        0.1548
      5 C           4.1643   -0.6227   -2.2721 C.3     1  UNL1        0.0236
      6 C           4.8549   -1.7313   -1.5753 C.3     1  UNL1       -0.0273
      7 C           6.1143   -1.3782   -0.8611 C.3     1  UNL1        0.0153
      8 N           5.8840   -0.1690   -0.1033 N.am    1  UNL1       -0.3010
      9 C           5.9715   -0.0953    1.3126 C.2     1  UNL1        0.2263
     10 O           6.2662   -1.1331    1.9682 O.2     1  UNL1       -0.2750
     11 C           5.7292    1.1596    2.0602 C.3     1  UNL1        0.1212
     12 C           5.8902    0.9439    3.5176 C.2     1  UNL1        0.3136
     13 O           5.7219    1.8911    4.3039 O.2     1  UNL1       -0.2505
     14 O           6.2280   -0.2928    4.0660 O.3     1  UNL1       -0.4803
     15 C           5.5506    0.9843   -0.9111 C.3     1  UNL1        0.0153
     16 C           4.3046    0.7376   -1.7195 C.3     1  UNL1       -0.0273
     17 N           1.8687   -1.0724   -1.2592 N.ar    1  UNL1       -0.2093
     18 C           0.6313   -1.3716   -1.6784 C.ar    1  UNL1        0.1785
     19 C          -0.5629   -1.5896   -0.8726 C.ar    1  UNL1        0.1266
     20 C          -0.8067   -2.7637   -0.2180 C.ar    1  UNL1        0.0587
     21 N          -1.9253   -2.9411    0.5249 N.ar    1  UNL1       -0.2361
     22 C          -2.8230   -1.9262    0.6189 C.ar    1  UNL1        0.1472
     23 N          -3.9750   -2.1524    1.4023 N.pl3   1  UNL1       -0.3413
     24 C          -2.5930   -0.7355   -0.0346 C.ar    1  UNL1        0.1672
     25 C          -3.6083    0.3174    0.1137 C.ar    1  UNL1        0.2701
     26 N          -3.4949    1.5137   -0.4727 N.ar    1  UNL1       -0.1055
     27 N          -4.5515    2.2178   -0.1483 N.ar    1  UNL1       -0.1115
     28 C          -5.3176    1.4555    0.6389 C.ar    1  UNL1        0.2230
     29 C          -6.6053    1.9042    1.2118 C.3     1  UNL1        0.0401
     30 C          -7.2635    0.8597    2.0574 C.3     1  UNL1       -0.0516
     31 C          -6.3027    3.1047    2.1106 C.3     1  UNL1       -0.0516
     32 C          -7.5123    2.3980    0.0911 C.3     1  UNL1       -0.0516
     33 O          -4.7116    0.3036    0.7774 O.2     1  UNL1       -0.4183
     34 N          -1.4846   -0.6077   -0.7500 N.ar    1  UNL1       -0.2338
     35 H          -0.6308   -2.8457   -3.8441 H       1  UNL1        0.0473
     36 H          -0.3573   -1.3491   -4.8908 H       1  UNL1        0.0473
     37 H          -1.3975   -1.2825   -3.4494 H       1  UNL1        0.0473
     38 H           4.4890   -0.6119   -3.3341 H       1  UNL1        0.0381
     39 H           4.1820   -2.2255   -0.8413 H       1  UNL1        0.0287
     40 H           5.1219   -2.5477   -2.3069 H       1  UNL1        0.0287
     41 H           6.9813   -1.2107   -1.5173 H       1  UNL1        0.0465
     42 H           6.3474   -2.1786   -0.1178 H       1  UNL1        0.0465
     43 H           6.4828    1.9506    1.7751 H       1  UNL1        0.0473
     44 H           4.6939    1.5403    1.9099 H       1  UNL1        0.0473
     45 H           6.9116   -0.3341    4.8204 H       1  UNL1        0.2951
     46 H           6.4001    1.1145   -1.6330 H       1  UNL1        0.0465
     47 H           5.4765    1.8986   -0.3206 H       1  UNL1        0.0465
     48 H           3.4509    1.0344   -1.0687 H       1  UNL1        0.0287
     49 H           4.3142    1.5067   -2.5407 H       1  UNL1        0.0287
     50 H          -0.0616   -3.5483   -0.3211 H       1  UNL1        0.0853
     51 H          -4.0265   -1.7559    2.3562 H       1  UNL1        0.1438
     52 H          -4.7560   -2.7110    1.0173 H       1  UNL1        0.1438
     53 H          -6.8408    0.9472    3.0843 H       1  UNL1        0.0240
     54 H          -8.3556    1.0856    2.0772 H       1  UNL1        0.0240
     55 H          -7.1518   -0.1573    1.6538 H       1  UNL1        0.0240
     56 H          -5.8055    3.8522    1.4364 H       1  UNL1        0.0240
     57 H          -5.5378    2.7880    2.8315 H       1  UNL1        0.0240
     58 H          -7.2158    3.5225    2.5578 H       1  UNL1        0.0240
     59 H          -8.1048    3.2710    0.4049 H       1  UNL1        0.0240
     60 H          -8.2136    1.6201   -0.2543 H       1  UNL1        0.0240
     61 H          -6.8747    2.7375   -0.7755 H       1  UNL1        0.0240
@<TRIPOS>BOND
     1     1     2    1
     2     2     3   ar
     3     3     4   ar
     4     4     5    1
     5     5     6    1
     6     6     7    1
     7     7     8    1
     8     8     9   am
     9     9    10    2
    10     9    11    1
    11    11    12    1
    12    12    13    2
    13    12    14    1
    14     8    15    1
    15    15    16    1
    16     4    17   ar
    17    17    18   ar
    18    18    19    1
    19    19    20   ar
    20    20    21   ar
    21    21    22   ar
    22    22    23    1
    23    22    24   ar
    24    24    25    1
    25    25    26   ar
    26    26    27   ar
    27    27    28   ar
    28    28    29    1
    29    29    30    1
    30    29    31    1
    31    29    32    1
    32    28    33   ar
    33    24    34   ar
    34    18     2   ar
    35    34    19   ar
    36    16     5    1
    37    33    25   ar
    38     1    35    1
    39     1    36    1
    40     1    37    1
    41     5    38    1
    42     6    39    1
    43     6    40    1
    44     7    41    1
    45     7    42    1
    46    11    43    1
    47    11    44    1
    48    14    45    1
    49    15    46    1
    50    15    47    1
    51    16    48    1
    52    16    49    1
    53    20    50    1
    54    23    51    1
    55    23    52    1
    56    30    53    1
    57    30    54    1
    58    30    55    1
    59    31    56    1
    60    31    57    1
    61    31    58    1
    62    32    59    1
    63    32    60    1
    64    32    61    1
