
     RDKit          3D

 61 64  0  0  0  0  0  0  0  0999 V2000
   -0.4646   -1.7426   -3.8592 C   0  0  0  0  0  0  0  0  0  0  0  0
    0.6851   -1.4392   -3.0321 N   0  0  0  0  0  0  0  0  0  0  0  0
    1.9192   -1.1863   -3.3890 N   0  0  0  0  0  0  0  0  0  0  0  0
    2.6971   -0.9515   -2.3285 C   0  0  0  0  0  0  0  0  0  0  0  0
    4.1643   -0.6227   -2.2721 C   0  0  0  0  0  0  0  0  0  0  0  0
    4.8549   -1.7313   -1.5753 C   0  0  0  0  0  0  0  0  0  0  0  0
    6.1143   -1.3782   -0.8611 C   0  0  0  0  0  0  0  0  0  0  0  0
    5.8840   -0.1690   -0.1033 N   0  0  0  0  0  0  0  0  0  0  0  0
    5.9715   -0.0953    1.3126 C   0  0  0  0  0  0  0  0  0  0  0  0
    6.2662   -1.1331    1.9682 O   0  0  0  0  0  0  0  0  0  0  0  0
    5.7292    1.1596    2.0602 C   0  0  0  0  0  0  0  0  0  0  0  0
    5.8902    0.9439    3.5176 C   0  0  0  0  0  0  0  0  0  0  0  0
    5.7219    1.8911    4.3039 O   0  0  0  0  0  0  0  0  0  0  0  0
    6.2280   -0.2928    4.0660 O   0  0  0  0  0  0  0  0  0  0  0  0
    5.5506    0.9843   -0.9111 C   0  0  0  0  0  0  0  0  0  0  0  0
    4.3046    0.7376   -1.7195 C   0  0  0  0  0  0  0  0  0  0  0  0
    1.8687   -1.0724   -1.2592 N   0  0  0  0  0  0  0  0  0  0  0  0
    0.6313   -1.3716   -1.6784 C   0  0  0  0  0  0  0  0  0  0  0  0
   -0.5629   -1.5896   -0.8726 C   0  0  0  0  0  0  0  0  0  0  0  0
   -0.8067   -2.7637   -0.2180 C   0  0  0  0  0  0  0  0  0  0  0  0
   -1.9253   -2.9411    0.5249 N   0  0  0  0  0  0  0  0  0  0  0  0
   -2.8230   -1.9262    0.6189 C   0  0  0  0  0  0  0  0  0  0  0  0
   -3.9750   -2.1524    1.4023 N   0  0  0  0  0  0  0  0  0  0  0  0
   -2.5930   -0.7355   -0.0346 C   0  0  0  0  0  0  0  0  0  0  0  0
   -3.6083    0.3174    0.1137 C   0  0  0  0  0  0  0  0  0  0  0  0
   -3.4949    1.5137   -0.4727 N   0  0  0  0  0  0  0  0  0  0  0  0
   -4.5515    2.2178   -0.1483 N   0  0  0  0  0  0  0  0  0  0  0  0
   -5.3176    1.4555    0.6389 C   0  0  0  0  0  0  0  0  0  0  0  0
   -6.6053    1.9042    1.2118 C   0  0  0  0  0  0  0  0  0  0  0  0
   -7.2635    0.8597    2.0574 C   0  0  0  0  0  0  0  0  0  0  0  0
   -6.3027    3.1047    2.1106 C   0  0  0  0  0  0  0  0  0  0  0  0
   -7.5123    2.3980    0.0911 C   0  0  0  0  0  0  0  0  0  0  0  0
   -4.7116    0.3036    0.7774 O   0  0  0  0  0  0  0  0  0  0  0  0
   -1.4846   -0.6077   -0.7500 N   0  0  0  0  0  0  0  0  0  0  0  0
   -0.6308   -2.8457   -3.8441 H   0  0  0  0  0  0  0  0  0  0  0  0
   -0.3573   -1.3491   -4.8908 H   0  0  0  0  0  0  0  0  0  0  0  0
   -1.3975   -1.2825   -3.4494 H   0  0  0  0  0  0  0  0  0  0  0  0
    4.4890   -0.6119   -3.3341 H   0  0  0  0  0  0  0  0  0  0  0  0
    4.1820   -2.2255   -0.8413 H   0  0  0  0  0  0  0  0  0  0  0  0
    5.1219   -2.5477   -2.3069 H   0  0  0  0  0  0  0  0  0  0  0  0
    6.9813   -1.2107   -1.5173 H   0  0  0  0  0  0  0  0  0  0  0  0
    6.3474   -2.1786   -0.1178 H   0  0  0  0  0  0  0  0  0  0  0  0
    6.4828    1.9506    1.7751 H   0  0  0  0  0  0  0  0  0  0  0  0
    4.6939    1.5403    1.9099 H   0  0  0  0  0  0  0  0  0  0  0  0
    6.9116   -0.3341    4.8204 H   0  0  0  0  0  0  0  0  0  0  0  0
    6.4001    1.1145   -1.6330 H   0  0  0  0  0  0  0  0  0  0  0  0
    5.4765    1.8986   -0.3206 H   0  0  0  0  0  0  0  0  0  0  0  0
    3.4509    1.0344   -1.0687 H   0  0  0  0  0  0  0  0  0  0  0  0
    4.3142    1.5067   -2.5407 H   0  0  0  0  0  0  0  0  0  0  0  0
   -0.0616   -3.5483   -0.3211 H   0  0  0  0  0  0  0  0  0  0  0  0
   -4.0265   -1.7559    2.3562 H   0  0  0  0  0  0  0  0  0  0  0  0
   -4.7560   -2.7110    1.0173 H   0  0  0  0  0  0  0  0  0  0  0  0
   -6.8408    0.9472    3.0843 H   0  0  0  0  0  0  0  0  0  0  0  0
   -8.3556    1.0856    2.0772 H   0  0  0  0  0  0  0  0  0  0  0  0
   -7.1518   -0.1573    1.6538 H   0  0  0  0  0  0  0  0  0  0  0  0
   -5.8055    3.8522    1.4364 H   0  0  0  0  0  0  0  0  0  0  0  0
   -5.5378    2.7880    2.8315 H   0  0  0  0  0  0  0  0  0  0  0  0
   -7.2158    3.5225    2.5578 H   0  0  0  0  0  0  0  0  0  0  0  0
   -8.1048    3.2710    0.4049 H   0  0  0  0  0  0  0  0  0  0  0  0
   -8.2136    1.6201   -0.2543 H   0  0  0  0  0  0  0  0  0  0  0  0
   -6.8747    2.7375   -0.7755 H   0  0  0  0  0  0  0  0  0  0  0  0
  1  2  1  0
  2  3  1  0
  3  4  2  0
  4  5  1  0
  5  6  1  0
  6  7  1  0
  7  8  1  0
  8  9  1  0
  9 10  2  0
  9 11  1  0
 11 12  1  0
 12 13  2  0
 12 14  1  0
  8 15  1  0
 15 16  1  0
  4 17  1  0
 17 18  2  0
 18 19  1  0
 19 20  2  0
 20 21  1  0
 21 22  2  0
 22 23  1  0
 22 24  1  0
 24 25  1  0
 25 26  2  0
 26 27  1  0
 27 28  2  0
 28 29  1  0
 29 30  1  0
 29 31  1  0
 29 32  1  0
 28 33  1  0
 24 34  2  0
 18  2  1  0
 34 19  1  0
 16  5  1  0
 33 25  1  0
  1 35  1  0
  1 36  1  0
  1 37  1  0
  5 38  1  0
  6 39  1  0
  6 40  1  0
  7 41  1  0
  7 42  1  0
 11 43  1  0
 11 44  1  0
 14 45  1  0
 15 46  1  0
 15 47  1  0
 16 48  1  0
 16 49  1  0
 20 50  1  0
 23 51  1  0
 23 52  1  0
 30 53  1  0
 30 54  1  0
 30 55  1  0
 31 56  1  0
 31 57  1  0
 31 58  1  0
 32 59  1  0
 32 60  1  0
 32 61  1  0
M  END
$$$$
