
     RDKit          3D

 55 60  0  0  0  0  0  0  0  0999 V2000
    0.9624   -3.1444    1.3302 N   0  0  0  0  0  0  0  0  0  0  0  0
    1.0283   -2.1928    0.2865 C   0  0  0  0  0  0  0  0  0  0  0  0
    0.8709   -0.9590    0.5156 N   0  0  0  0  0  0  0  0  0  0  0  0
    0.8890    0.1733   -0.3296 C   0  0  0  0  0  0  0  0  0  0  0  0
    0.9802   -0.0232   -1.7926 C   0  0  0  0  0  0  0  0  0  0  0  0
    0.5658   -1.3160   -2.3755 C   0  0  0  0  0  0  0  0  0  0  0  0
    1.3295   -2.6787   -1.4036 S   0  0  0  0  0  0  0  0  0  0  0  0
   -0.3291    0.9784    0.0039 C   0  0  0  0  0  0  0  0  0  0  0  0
   -1.5781    0.4552   -0.2595 C   0  0  0  0  0  0  0  0  0  0  0  0
   -2.7191    1.1457    0.0177 C   0  0  0  0  0  0  0  0  0  0  0  0
   -4.0320    0.6328   -0.2429 N   0  0  0  0  0  0  0  0  0  0  0  0
   -4.7700   -0.1220    0.6924 C   0  0  0  0  0  0  0  0  0  0  0  0
   -4.2287   -0.3444    1.8060 O   0  0  0  0  0  0  0  0  0  0  0  0
   -6.1069   -0.6455    0.4298 C   0  0  0  0  0  0  0  0  0  0  0  0
   -6.7697   -1.3752    1.3901 C   0  0  0  0  0  0  0  0  0  0  0  0
   -8.0468   -1.8892    1.1714 C   0  0  0  0  0  0  0  0  0  0  0  0
   -8.6666   -1.6620   -0.0399 C   0  0  0  0  0  0  0  0  0  0  0  0
   -9.9094   -2.1469   -0.2881 F   0  0  0  0  0  0  0  0  0  0  0  0
   -7.9694   -0.9248   -0.9796 C   0  0  0  0  0  0  0  0  0  0  0  0
   -6.7293   -0.4377   -0.7394 N   0  0  0  0  0  0  0  0  0  0  0  0
   -2.6548    2.4007    0.5757 C   0  0  0  0  0  0  0  0  0  0  0  0
   -1.4306    2.9564    0.8533 C   0  0  0  0  0  0  0  0  0  0  0  0
   -0.2821    2.2184    0.5554 C   0  0  0  0  0  0  0  0  0  0  0  0
    0.9092    2.8415    0.8642 O   0  0  0  0  0  0  0  0  0  0  0  0
    2.0927    2.2042    0.6142 C   0  0  0  0  0  0  0  0  0  0  0  0
    2.1184    0.9581    0.0621 C   0  0  0  0  0  0  0  0  0  0  0  0
    3.3585    0.3726   -0.1620 C   0  0  0  0  0  0  0  0  0  0  0  0
    4.5323    1.0193    0.1584 C   0  0  0  0  0  0  0  0  0  0  0  0
    5.8657    0.4198   -0.0692 C   0  0  0  0  0  0  0  0  0  0  0  0
    6.0472   -0.8188   -0.6133 C   0  0  0  0  0  0  0  0  0  0  0  0
    7.3474   -1.2907   -0.7853 C   0  0  0  0  0  0  0  0  0  0  0  0
    8.4175   -0.5639   -0.4323 N   0  0  0  0  0  0  0  0  0  0  0  0
    8.2711    0.6625    0.1074 C   0  0  0  0  0  0  0  0  0  0  0  0
    9.3432    1.4282    0.4778 F   0  0  0  0  0  0  0  0  0  0  0  0
    6.9898    1.1381    0.2816 C   0  0  0  0  0  0  0  0  0  0  0  0
    4.4543    2.2430    0.6989 N   0  0  0  0  0  0  0  0  0  0  0  0
    3.2888    2.8530    0.9361 C   0  0  0  0  0  0  0  0  0  0  0  0
    3.2198    4.0846    1.4804 F   0  0  0  0  0  0  0  0  0  0  0  0
    0.6682   -4.1290    1.1515 H   0  0  0  0  0  0  0  0  0  0  0  0
    1.2047   -2.8976    2.3139 H   0  0  0  0  0  0  0  0  0  0  0  0
    0.3289    0.7694   -2.2785 H   0  0  0  0  0  0  0  0  0  0  0  0
    2.0041    0.2455   -2.1912 H   0  0  0  0  0  0  0  0  0  0  0  0
    1.0825   -1.4087   -3.3811 H   0  0  0  0  0  0  0  0  0  0  0  0
   -0.5004   -1.4666   -2.5244 H   0  0  0  0  0  0  0  0  0  0  0  0
   -1.6736   -0.5306   -0.6946 H   0  0  0  0  0  0  0  0  0  0  0  0
   -4.4692    0.8247   -1.1708 H   0  0  0  0  0  0  0  0  0  0  0  0
   -6.2975   -1.5562    2.3312 H   0  0  0  0  0  0  0  0  0  0  0  0
   -8.5715   -2.4678    1.9337 H   0  0  0  0  0  0  0  0  0  0  0  0
   -8.4659   -0.7515   -1.9297 H   0  0  0  0  0  0  0  0  0  0  0  0
   -3.5695    2.9633    0.8018 H   0  0  0  0  0  0  0  0  0  0  0  0
   -1.3466    3.9416    1.2922 H   0  0  0  0  0  0  0  0  0  0  0  0
    3.4030   -0.6293   -0.6051 H   0  0  0  0  0  0  0  0  0  0  0  0
    5.2008   -1.4189   -0.9037 H   0  0  0  0  0  0  0  0  0  0  0  0
    7.5175   -2.2642   -1.2122 H   0  0  0  0  0  0  0  0  0  0  0  0
    6.8256    2.1252    0.7147 H   0  0  0  0  0  0  0  0  0  0  0  0
  1  2  1  0
  2  3  2  0
  3  4  1  0
  4  5  1  0
  5  6  1  0
  6  7  1  0
  4  8  1  0
  8  9  2  0
  9 10  1  0
 10 11  1  0
 11 12  1  0
 12 13  2  0
 12 14  1  0
 14 15  2  0
 15 16  1  0
 16 17  2  0
 17 18  1  0
 17 19  1  0
 19 20  2  0
 10 21  2  0
 21 22  1  0
 22 23  2  0
 23 24  1  0
 24 25  1  0
 25 26  2  0
 26 27  1  0
 27 28  2  0
 28 29  1  0
 29 30  2  0
 30 31  1  0
 31 32  2  0
 32 33  1  0
 33 34  1  0
 33 35  2  0
 28 36  1  0
 36 37  2  0
 37 38  1  0
  7  2  1  0
 23  8  1  0
 37 25  1  0
 26  4  1  0
 35 29  1  0
 20 14  1  0
  1 39  1  0
  1 40  1  0
  5 41  1  0
  5 42  1  0
  6 43  1  0
  6 44  1  0
  9 45  1  0
 11 46  1  0
 15 47  1  0
 16 48  1  0
 19 49  1  0
 21 50  1  0
 22 51  1  0
 27 52  1  0
 30 53  1  0
 31 54  1  0
 35 55  1  0
M  END
$$$$
