@<TRIPOS>MOLECULE
*****
 55 60 0 0 0
SMALL
GASTEIGER

@<TRIPOS>ATOM
      1 N           0.9624   -3.1444    1.3302 N.pl3   1  UNL1       -0.3380
      2 C           1.0283   -2.1928    0.2865 C.2     1  UNL1        0.1478
      3 N           0.8709   -0.9590    0.5156 N.2     1  UNL1       -0.2472
      4 C           0.8890    0.1733   -0.3296 C.3     1  UNL1        0.1217
      5 C           0.9802   -0.0232   -1.7926 C.3     1  UNL1       -0.0096
      6 C           0.5658   -1.3160   -2.3755 C.3     1  UNL1        0.0037
      7 S           1.3295   -2.6787   -1.4036 S.3     1  UNL1       -0.0910
      8 C          -0.3291    0.9784    0.0039 C.ar    1  UNL1        0.0285
      9 C          -1.5781    0.4552   -0.2595 C.ar    1  UNL1       -0.0312
     10 C          -2.7191    1.1457    0.0177 C.ar    1  UNL1        0.0343
     11 N          -4.0320    0.6328   -0.2429 N.am    1  UNL1       -0.2802
     12 C          -4.7700   -0.1220    0.6924 C.2     1  UNL1        0.2666
     13 O          -4.2287   -0.3444    1.8060 O.2     1  UNL1       -0.2682
     14 C          -6.1069   -0.6455    0.4298 C.ar    1  UNL1        0.1258
     15 C          -6.7697   -1.3752    1.3901 C.ar    1  UNL1       -0.0285
     16 C          -8.0468   -1.8892    1.1714 C.ar    1  UNL1       -0.0228
     17 C          -8.6666   -1.6620   -0.0399 C.ar    1  UNL1        0.1414
     18 F          -9.9094   -2.1469   -0.2881 F       1  UNL1       -0.2039
     19 C          -7.9694   -0.9248   -0.9796 C.ar    1  UNL1        0.0636
     20 N          -6.7293   -0.4377   -0.7394 N.ar    1  UNL1       -0.2475
     21 C          -2.6548    2.4007    0.5757 C.ar    1  UNL1       -0.0370
     22 C          -1.4306    2.9564    0.8533 C.ar    1  UNL1       -0.0172
     23 C          -0.2821    2.2184    0.5554 C.ar    1  UNL1        0.1346
     24 O           0.9092    2.8415    0.8642 O.3     1  UNL1       -0.4508
     25 C           2.0927    2.2042    0.6142 C.ar    1  UNL1        0.1883
     26 C           2.1184    0.9581    0.0621 C.ar    1  UNL1        0.0333
     27 C           3.3585    0.3726   -0.1620 C.ar    1  UNL1       -0.0262
     28 C           4.5323    1.0193    0.1584 C.ar    1  UNL1        0.0748
     29 C           5.8657    0.4198   -0.0692 C.ar    1  UNL1        0.0061
     30 C           6.0472   -0.8188   -0.6133 C.ar    1  UNL1       -0.0342
     31 C           7.3474   -1.2907   -0.7853 C.ar    1  UNL1        0.0313
     32 N           8.4175   -0.5639   -0.4323 N.ar    1  UNL1       -0.2276
     33 C           8.2711    0.6625    0.1074 C.ar    1  UNL1        0.2138
     34 F           9.3432    1.4282    0.4778 F       1  UNL1       -0.1839
     35 C           6.9898    1.1381    0.2816 C.ar    1  UNL1        0.0019
     36 N           4.4543    2.2430    0.6989 N.ar    1  UNL1       -0.2161
     37 C           3.2888    2.8530    0.9361 C.ar    1  UNL1        0.2567
     38 F           3.2198    4.0846    1.4804 F       1  UNL1       -0.1799
     39 H           0.6682   -4.1290    1.1515 H       1  UNL1        0.1442
     40 H           1.2047   -2.8976    2.3139 H       1  UNL1        0.1442
     41 H           0.3289    0.7694   -2.2785 H       1  UNL1        0.0303
     42 H           2.0041    0.2455   -2.1912 H       1  UNL1        0.0303
     43 H           1.0825   -1.4087   -3.3811 H       1  UNL1        0.0381
     44 H          -0.5004   -1.4666   -2.5244 H       1  UNL1        0.0381
     45 H          -1.6736   -0.5306   -0.6946 H       1  UNL1        0.0641
     46 H          -4.4692    0.8247   -1.1708 H       1  UNL1        0.1552
     47 H          -6.2975   -1.5562    2.3312 H       1  UNL1        0.0641
     48 H          -8.5715   -2.4678    1.9337 H       1  UNL1        0.0647
     49 H          -8.4659   -0.7515   -1.9297 H       1  UNL1        0.0859
     50 H          -3.5695    2.9633    0.8018 H       1  UNL1        0.0637
     51 H          -1.3466    3.9416    1.2922 H       1  UNL1        0.0655
     52 H           3.4030   -0.6293   -0.6051 H       1  UNL1        0.0644
     53 H           5.2008   -1.4189   -0.9037 H       1  UNL1        0.0639
     54 H           7.5175   -2.2642   -1.2122 H       1  UNL1        0.0831
     55 H           6.8256    2.1252    0.7147 H       1  UNL1        0.0669
@<TRIPOS>BOND
     1     1     2    1
     2     2     3    2
     3     3     4    1
     4     4     5    1
     5     5     6    1
     6     6     7    1
     7     4     8    1
     8     8     9   ar
     9     9    10   ar
    10    10    11    1
    11    11    12   am
    12    12    13    2
    13    12    14    1
    14    14    15   ar
    15    15    16   ar
    16    16    17   ar
    17    17    18    1
    18    17    19   ar
    19    19    20   ar
    20    10    21   ar
    21    21    22   ar
    22    22    23   ar
    23    23    24    1
    24    24    25    1
    25    25    26   ar
    26    26    27   ar
    27    27    28   ar
    28    28    29    1
    29    29    30   ar
    30    30    31   ar
    31    31    32   ar
    32    32    33   ar
    33    33    34    1
    34    33    35   ar
    35    28    36   ar
    36    36    37   ar
    37    37    38    1
    38     7     2    1
    39    23     8   ar
    40    37    25   ar
    41    26     4    1
    42    35    29   ar
    43    20    14   ar
    44     1    39    1
    45     1    40    1
    46     5    41    1
    47     5    42    1
    48     6    43    1
    49     6    44    1
    50     9    45    1
    51    11    46    1
    52    15    47    1
    53    16    48    1
    54    19    49    1
    55    21    50    1
    56    22    51    1
    57    27    52    1
    58    30    53    1
    59    31    54    1
    60    35    55    1
