
     RDKit          3D

 47 49  0  0  0  0  0  0  0  0999 V2000
    8.7074    2.2891    0.4489 C   0  0  0  0  0  0  0  0  0  0  0  0
    8.0273    1.1505    0.9446 O   0  0  0  0  0  0  0  0  0  0  0  0
    6.7238    0.9522    0.5084 C   0  0  0  0  0  0  0  0  0  0  0  0
    5.9951   -0.1446    0.9535 C   0  0  0  0  0  0  0  0  0  0  0  0
    4.7280   -0.3525    0.5400 N   0  0  0  0  0  0  0  0  0  0  0  0
    4.1160    0.4852   -0.3152 C   0  0  0  0  0  0  0  0  0  0  0  0
    2.7445    0.2686   -0.7692 C   0  0  0  0  0  0  0  0  0  0  0  0
    2.1901    1.0604   -1.5670 O   0  0  0  0  0  0  0  0  0  0  0  0
    2.0013   -0.8516   -0.3149 N   0  0  0  0  0  0  0  0  0  0  0  0
    0.6687   -1.0322   -0.7772 C   0  0  0  0  0  0  0  0  0  0  0  0
    0.3884   -1.7642   -1.9304 C   0  0  0  0  0  0  0  0  0  0  0  0
   -0.8912   -1.9491   -2.3917 C   0  0  0  0  0  0  0  0  0  0  0  0
   -1.0924   -2.6664   -3.5114 F   0  0  0  0  0  0  0  0  0  0  0  0
   -1.9266   -1.3879   -1.6835 C   0  0  0  0  0  0  0  0  0  0  0  0
   -3.1807   -1.5698   -2.1378 F   0  0  0  0  0  0  0  0  0  0  0  0
   -1.7131   -0.6486   -0.5285 C   0  0  0  0  0  0  0  0  0  0  0  0
   -2.8834   -0.0587    0.2051 C   0  0  2  0  0  0  0  0  0  0  0  0
   -2.3655    0.8255    1.3498 C   0  0  0  0  0  0  0  0  0  0  0  0
   -3.7535   -1.0989    0.8218 C   0  0  0  0  0  0  0  0  0  0  0  0
   -5.1226   -1.2192    0.2545 C   0  0  1  0  0  0  0  0  0  0  0  0
   -6.1349   -1.5296    1.3655 C   0  0  0  0  0  0  0  0  0  0  0  0
   -6.1503   -0.5353    2.3149 F   0  0  0  0  0  0  0  0  0  0  0  0
   -7.3953   -1.6001    0.7954 F   0  0  0  0  0  0  0  0  0  0  0  0
   -5.8668   -2.7618    1.9439 F   0  0  0  0  0  0  0  0  0  0  0  0
   -5.5989   -0.0944   -0.4183 O   0  0  0  0  0  0  0  0  0  0  0  0
   -4.7722    0.8303   -1.0144 C   0  0  0  0  0  0  0  0  0  0  0  0
   -5.2424    1.7901   -1.9531 N   0  0  0  0  0  0  0  0  0  0  0  0
   -3.5389    0.8249   -0.7127 N   0  0  0  0  0  0  0  0  0  0  0  0
   -0.4091   -0.4922   -0.1072 C   0  0  0  0  0  0  0  0  0  0  0  0
    4.8385    1.5816   -0.7627 C   0  0  0  0  0  0  0  0  0  0  0  0
    6.0975    1.7801   -0.3463 N   0  0  0  0  0  0  0  0  0  0  0  0
    9.8094    2.1446    0.4878 H   0  0  0  0  0  0  0  0  0  0  0  0
    8.3667    2.5228   -0.5770 H   0  0  0  0  0  0  0  0  0  0  0  0
    8.4381    3.1930    1.0704 H   0  0  0  0  0  0  0  0  0  0  0  0
    6.4934   -0.8177    1.6434 H   0  0  0  0  0  0  0  0  0  0  0  0
    2.4406   -1.5269    0.3507 H   0  0  0  0  0  0  0  0  0  0  0  0
    1.2480   -2.1791   -2.4407 H   0  0  0  0  0  0  0  0  0  0  0  0
   -3.2696    1.3095    1.7902 H   0  0  0  0  0  0  0  0  0  0  0  0
   -1.9312    0.2075    2.1552 H   0  0  0  0  0  0  0  0  0  0  0  0
   -1.6616    1.5730    0.9675 H   0  0  0  0  0  0  0  0  0  0  0  0
   -3.2706   -2.1176    0.7373 H   0  0  0  0  0  0  0  0  0  0  0  0
   -3.8589   -0.9657    1.9381 H   0  0  0  0  0  0  0  0  0  0  0  0
   -5.2133   -2.0994   -0.4459 H   0  0  0  0  0  0  0  0  0  0  0  0
   -6.1939    2.1981   -1.8658 H   0  0  0  0  0  0  0  0  0  0  0  0
   -4.6624    2.1206   -2.7561 H   0  0  0  0  0  0  0  0  0  0  0  0
   -0.2638    0.0959    0.8082 H   0  0  0  0  0  0  0  0  0  0  0  0
    4.3402    2.2601   -1.4565 H   0  0  0  0  0  0  0  0  0  0  0  0
  1  2  1  0
  2  3  1  0
  3  4  2  0
  4  5  1  0
  5  6  2  0
  6  7  1  0
  7  8  2  0
  7  9  1  0
  9 10  1  0
 10 11  2  0
 11 12  1  0
 12 13  1  0
 12 14  2  0
 14 15  1  0
 14 16  1  0
 16 17  1  0
 17 18  1  1
 17 19  1  0
 19 20  1  0
 20 21  1  0
 21 22  1  0
 21 23  1  0
 21 24  1  0
 20 25  1  0
 25 26  1  0
 26 27  1  0
 26 28  2  0
 16 29  2  0
  6 30  1  0
 30 31  2  0
 31  3  1  0
 29 10  1  0
 28 17  1  0
  1 32  1  0
  1 33  1  0
  1 34  1  0
  4 35  1  0
  9 36  1  0
 11 37  1  0
 18 38  1  0
 18 39  1  0
 18 40  1  0
 19 41  1  0
 19 42  1  0
 20 43  1  6
 27 44  1  0
 27 45  1  0
 29 46  1  0
 30 47  1  0
M  END
$$$$
