@<TRIPOS>MOLECULE
*****
 47 49 0 0 0
SMALL
GASTEIGER

@<TRIPOS>ATOM
      1 C           8.7074    2.2891    0.4489 C.3     1  UNL1        0.0805
      2 O           8.0273    1.1505    0.9446 O.3     1  UNL1       -0.4786
      3 C           6.7238    0.9522    0.5084 C.ar    1  UNL1        0.2332
      4 C           5.9951   -0.1446    0.9535 C.ar    1  UNL1        0.0899
      5 N           4.7280   -0.3525    0.5400 N.ar    1  UNL1       -0.2435
      6 C           4.1160    0.4852   -0.3152 C.ar    1  UNL1        0.1439
      7 C           2.7445    0.2686   -0.7692 C.2     1  UNL1        0.2681
      8 O           2.1901    1.0604   -1.5670 O.2     1  UNL1       -0.2681
      9 N           2.0013   -0.8516   -0.3149 N.am    1  UNL1       -0.2801
     10 C           0.6687   -1.0322   -0.7772 C.ar    1  UNL1        0.0369
     11 C           0.3884   -1.7642   -1.9304 C.ar    1  UNL1       -0.0023
     12 C          -0.8912   -1.9491   -2.3917 C.ar    1  UNL1        0.1605
     13 F          -1.0924   -2.6664   -3.5114 F       1  UNL1       -0.2024
     14 C          -1.9266   -1.3879   -1.6835 C.ar    1  UNL1        0.1640
     15 F          -3.1807   -1.5698   -2.1378 F       1  UNL1       -0.2021
     16 C          -1.7131   -0.6486   -0.5285 C.ar    1  UNL1        0.0197
     17 C          -2.8834   -0.0587    0.2051 C.3     1  UNL1        0.0952
     18 C          -2.3655    0.8255    1.3498 C.3     1  UNL1       -0.0352
     19 C          -3.7535   -1.0989    0.8218 C.3     1  UNL1        0.0223
     20 C          -5.1226   -1.2192    0.2545 C.3     1  UNL1        0.1997
     21 C          -6.1349   -1.5296    1.3655 C.3     1  UNL1        0.4266
     22 F          -6.1503   -0.5353    2.3149 F       1  UNL1       -0.1669
     23 F          -7.3953   -1.6001    0.7954 F       1  UNL1       -0.1669
     24 F          -5.8668   -2.7618    1.9439 F       1  UNL1       -0.1669
     25 O          -5.5989   -0.0944   -0.4183 O.2     1  UNL1       -0.4534
     26 C          -4.7722    0.8303   -1.0144 C.2     1  UNL1        0.2765
     27 N          -5.2424    1.7901   -1.9531 N.pl3   1  UNL1       -0.3134
     28 N          -3.5389    0.8249   -0.7127 N.2     1  UNL1       -0.2257
     29 C          -0.4091   -0.4922   -0.1072 C.ar    1  UNL1       -0.0321
     30 C           4.8385    1.5816   -0.7627 C.ar    1  UNL1        0.0619
     31 N           6.0975    1.7801   -0.3463 N.ar    1  UNL1       -0.2178
     32 H           9.8094    2.1446    0.4878 H       1  UNL1        0.0660
     33 H           8.3667    2.5228   -0.5770 H       1  UNL1        0.0660
     34 H           8.4381    3.1930    1.0704 H       1  UNL1        0.0660
     35 H           6.4934   -0.8177    1.6434 H       1  UNL1        0.0884
     36 H           2.4406   -1.5269    0.3507 H       1  UNL1        0.1552
     37 H           1.2480   -2.1791   -2.4407 H       1  UNL1        0.0666
     38 H          -3.2696    1.3095    1.7902 H       1  UNL1        0.0256
     39 H          -1.9312    0.2075    2.1552 H       1  UNL1        0.0256
     40 H          -1.6616    1.5730    0.9675 H       1  UNL1        0.0256
     41 H          -3.2706   -2.1176    0.7373 H       1  UNL1        0.0330
     42 H          -3.8589   -0.9657    1.9381 H       1  UNL1        0.0330
     43 H          -5.2133   -2.0994   -0.4459 H       1  UNL1        0.0826
     44 H          -6.1939    2.1981   -1.8658 H       1  UNL1        0.1466
     45 H          -4.6624    2.1206   -2.7561 H       1  UNL1        0.1466
     46 H          -0.2638    0.0959    0.8082 H       1  UNL1        0.0640
     47 H           4.3402    2.2601   -1.4565 H       1  UNL1        0.0854
@<TRIPOS>BOND
     1     1     2    1
     2     2     3    1
     3     3     4   ar
     4     4     5   ar
     5     5     6   ar
     6     6     7    1
     7     7     8    2
     8     7     9   am
     9     9    10    1
    10    10    11   ar
    11    11    12   ar
    12    12    13    1
    13    12    14   ar
    14    14    15    1
    15    14    16   ar
    16    16    17    1
    17    17    18    1
    18    17    19    1
    19    19    20    1
    20    20    21    1
    21    21    22    1
    22    21    23    1
    23    21    24    1
    24    20    25    1
    25    25    26    1
    26    26    27    1
    27    26    28    2
    28    16    29   ar
    29     6    30   ar
    30    30    31   ar
    31    31     3   ar
    32    29    10   ar
    33    28    17    1
    34     1    32    1
    35     1    33    1
    36     1    34    1
    37     4    35    1
    38     9    36    1
    39    11    37    1
    40    18    38    1
    41    18    39    1
    42    18    40    1
    43    19    41    1
    44    19    42    1
    45    20    43    1
    46    27    44    1
    47    27    45    1
    48    29    46    1
    49    30    47    1
