
     RDKit          3D

 44 46  0  0  0  0  0  0  0  0999 V2000
    2.9559   -3.9499   -2.0313 C   0  0  0  0  0  0  0  0  0  0  0  0
    3.3752   -2.6169   -1.8105 O   0  0  0  0  0  0  0  0  0  0  0  0
    2.4998   -1.7449   -1.1840 C   0  0  0  0  0  0  0  0  0  0  0  0
    1.2481   -2.1406   -0.7771 C   0  0  0  0  0  0  0  0  0  0  0  0
    0.3860   -1.2495   -0.1514 C   0  0  0  0  0  0  0  0  0  0  0  0
    0.7311    0.0599    0.0906 C   0  0  0  0  0  0  0  0  0  0  0  0
    1.9859    0.4620   -0.3128 C   0  0  0  0  0  0  0  0  0  0  0  0
    2.8500   -0.4386   -0.9419 C   0  0  0  0  0  0  0  0  0  0  0  0
    2.1089    1.7708    0.0668 C   0  0  0  0  0  0  0  0  0  0  0  0
    3.3090    2.6200   -0.1635 C   0  0  0  0  0  0  0  0  0  0  0  0
    3.4037    3.0643   -1.5691 C   0  0  0  0  0  0  0  0  0  0  0  0
    2.5338    2.7237   -2.4083 O   0  0  0  0  0  0  0  0  0  0  0  0
    4.4582    3.8633   -1.9714 O   0  0  0  0  0  0  0  0  0  0  0  0
    0.9611    2.1674    0.6861 C   0  0  0  0  0  0  0  0  0  0  0  0
    0.6498    3.5178    1.2599 C   0  0  0  0  0  0  0  0  0  0  0  0
    0.1169    1.0996    0.6909 N   0  0  0  0  0  0  0  0  0  0  0  0
   -1.1381    1.1594    1.3299 C   0  0  0  0  0  0  0  0  0  0  0  0
   -1.3540    2.1470    2.1587 O   0  0  0  0  0  0  0  0  0  0  0  0
   -2.2304    0.2272    1.1526 C   0  0  0  0  0  0  0  0  0  0  0  0
   -3.0328   -0.1351    2.2488 C   0  0  0  0  0  0  0  0  0  0  0  0
   -4.1459   -0.9259    2.0936 C   0  0  0  0  0  0  0  0  0  0  0  0
   -4.5468   -1.4118    0.8685 C   0  0  0  0  0  0  0  0  0  0  0  0
   -5.7586   -2.2653    0.7427 C   0  0  0  0  0  0  0  0  0  0  0  0
   -3.7754   -1.0694   -0.2210 C   0  0  0  0  0  0  0  0  0  0  0  0
   -2.6531   -0.2703   -0.0559 C   0  0  0  0  0  0  0  0  0  0  0  0
    2.7909   -4.3909   -1.0167 H   0  0  0  0  0  0  0  0  0  0  0  0
    3.7359   -4.5357   -2.5453 H   0  0  0  0  0  0  0  0  0  0  0  0
    1.9869   -3.9277   -2.5462 H   0  0  0  0  0  0  0  0  0  0  0  0
    0.9547   -3.1653   -0.9586 H   0  0  0  0  0  0  0  0  0  0  0  0
   -0.5468   -1.6551    0.1695 H   0  0  0  0  0  0  0  0  0  0  0  0
    3.8174   -0.0481   -1.2304 H   0  0  0  0  0  0  0  0  0  0  0  0
    3.2850    3.4834    0.5233 H   0  0  0  0  0  0  0  0  0  0  0  0
    4.2266    2.0274    0.1143 H   0  0  0  0  0  0  0  0  0  0  0  0
    4.7927    3.8882   -2.9283 H   0  0  0  0  0  0  0  0  0  0  0  0
    1.4452    4.2303    0.9888 H   0  0  0  0  0  0  0  0  0  0  0  0
   -0.3508    3.8509    0.9143 H   0  0  0  0  0  0  0  0  0  0  0  0
    0.6163    3.4468    2.3658 H   0  0  0  0  0  0  0  0  0  0  0  0
   -2.7111    0.2520    3.2164 H   0  0  0  0  0  0  0  0  0  0  0  0
   -4.7529   -1.1947    2.9540 H   0  0  0  0  0  0  0  0  0  0  0  0
   -6.5722   -1.8049    1.3475 H   0  0  0  0  0  0  0  0  0  0  0  0
   -6.0232   -2.4562   -0.2953 H   0  0  0  0  0  0  0  0  0  0  0  0
   -5.5132   -3.2292    1.2727 H   0  0  0  0  0  0  0  0  0  0  0  0
   -4.0655   -1.4363   -1.1973 H   0  0  0  0  0  0  0  0  0  0  0  0
   -2.0540    0.0006   -0.9391 H   0  0  0  0  0  0  0  0  0  0  0  0
  1  2  1  0
  2  3  1  0
  3  4  2  0
  4  5  1  0
  5  6  2  0
  6  7  1  0
  7  8  2  0
  7  9  1  0
  9 10  1  0
 10 11  1  0
 11 12  2  0
 11 13  1  0
  9 14  2  0
 14 15  1  0
 14 16  1  0
 16 17  1  0
 17 18  2  0
 17 19  1  0
 19 20  2  0
 20 21  1  0
 21 22  2  0
 22 23  1  0
 22 24  1  0
 24 25  2  0
  8  3  1  0
 25 19  1  0
 16  6  1  0
  1 26  1  0
  1 27  1  0
  1 28  1  0
  4 29  1  0
  5 30  1  0
  8 31  1  0
 10 32  1  0
 10 33  1  0
 13 34  1  0
 15 35  1  0
 15 36  1  0
 15 37  1  0
 20 38  1  0
 21 39  1  0
 23 40  1  0
 23 41  1  0
 23 42  1  0
 24 43  1  0
 25 44  1  0
M  END
$$$$
