@<TRIPOS>MOLECULE
*****
 44 46 0 0 0
SMALL
GASTEIGER

@<TRIPOS>ATOM
      1 C           2.9559   -3.9499   -2.0313 C.3     1  UNL1        0.0788
      2 O           3.3752   -2.6169   -1.8105 O.3     1  UNL1       -0.4951
      3 C           2.4998   -1.7449   -1.1840 C.ar    1  UNL1        0.1208
      4 C           1.2481   -2.1406   -0.7771 C.ar    1  UNL1       -0.0180
      5 C           0.3860   -1.2495   -0.1514 C.ar    1  UNL1       -0.0337
      6 C           0.7311    0.0599    0.0906 C.ar    1  UNL1        0.0574
      7 C           1.9859    0.4620   -0.3128 C.ar    1  UNL1        0.0077
      8 C           2.8500   -0.4386   -0.9419 C.ar    1  UNL1       -0.0105
      9 C           2.1089    1.7708    0.0668 C.ar    1  UNL1       -0.0080
     10 C           3.3090    2.6200   -0.1635 C.3     1  UNL1        0.0721
     11 C           3.4037    3.0643   -1.5691 C.2     1  UNL1        0.3091
     12 O           2.5338    2.7237   -2.4083 O.2     1  UNL1       -0.2507
     13 O           4.4582    3.8633   -1.9714 O.3     1  UNL1       -0.4804
     14 C           0.9611    2.1674    0.6861 C.ar    1  UNL1        0.0284
     15 C           0.6498    3.5178    1.2599 C.3     1  UNL1       -0.0235
     16 N           0.1169    1.0996    0.6909 N.ar    1  UNL1       -0.2801
     17 C          -1.1381    1.1594    1.3299 C.2     1  UNL1        0.2631
     18 O          -1.3540    2.1470    2.1587 O.2     1  UNL1       -0.2667
     19 C          -2.2304    0.2272    1.1526 C.ar    1  UNL1        0.0399
     20 C          -3.0328   -0.1351    2.2488 C.ar    1  UNL1       -0.0492
     21 C          -4.1459   -0.9259    2.0936 C.ar    1  UNL1       -0.0581
     22 C          -4.5468   -1.4118    0.8685 C.ar    1  UNL1       -0.0504
     23 C          -5.7586   -2.2653    0.7427 C.3     1  UNL1       -0.0397
     24 C          -3.7754   -1.0694   -0.2210 C.ar    1  UNL1       -0.0581
     25 C          -2.6531   -0.2703   -0.0559 C.ar    1  UNL1       -0.0492
     26 H           2.7909   -4.3909   -1.0167 H       1  UNL1        0.0660
     27 H           3.7359   -4.5357   -2.5453 H       1  UNL1        0.0660
     28 H           1.9869   -3.9277   -2.5462 H       1  UNL1        0.0660
     29 H           0.9547   -3.1653   -0.9586 H       1  UNL1        0.0655
     30 H          -0.5468   -1.6551    0.1695 H       1  UNL1        0.0640
     31 H           3.8174   -0.0481   -1.2304 H       1  UNL1        0.0661
     32 H           3.2850    3.4834    0.5233 H       1  UNL1        0.0427
     33 H           4.2266    2.0274    0.1143 H       1  UNL1        0.0427
     34 H           4.7927    3.8882   -2.9283 H       1  UNL1        0.2951
     35 H           1.4452    4.2303    0.9888 H       1  UNL1        0.0292
     36 H          -0.3508    3.8509    0.9143 H       1  UNL1        0.0292
     37 H           0.6163    3.4468    2.3658 H       1  UNL1        0.0292
     38 H          -2.7111    0.2520    3.2164 H       1  UNL1        0.0625
     39 H          -4.7529   -1.1947    2.9540 H       1  UNL1        0.0620
     40 H          -6.5722   -1.8049    1.3475 H       1  UNL1        0.0278
     41 H          -6.0232   -2.4562   -0.2953 H       1  UNL1        0.0278
     42 H          -5.5132   -3.2292    1.2727 H       1  UNL1        0.0278
     43 H          -4.0655   -1.4363   -1.1973 H       1  UNL1        0.0620
     44 H          -2.0540    0.0006   -0.9391 H       1  UNL1        0.0625
@<TRIPOS>BOND
     1     1     2    1
     2     2     3    1
     3     3     4   ar
     4     4     5   ar
     5     5     6   ar
     6     6     7   ar
     7     7     8   ar
     8     7     9   ar
     9     9    10    1
    10    10    11    1
    11    11    12    2
    12    11    13    1
    13     9    14   ar
    14    14    15    1
    15    14    16   ar
    16    16    17   am
    17    17    18    2
    18    17    19    1
    19    19    20   ar
    20    20    21   ar
    21    21    22   ar
    22    22    23    1
    23    22    24   ar
    24    24    25   ar
    25     8     3   ar
    26    25    19   ar
    27    16     6   ar
    28     1    26    1
    29     1    27    1
    30     1    28    1
    31     4    29    1
    32     5    30    1
    33     8    31    1
    34    10    32    1
    35    10    33    1
    36    13    34    1
    37    15    35    1
    38    15    36    1
    39    15    37    1
    40    20    38    1
    41    21    39    1
    42    23    40    1
    43    23    41    1
    44    23    42    1
    45    24    43    1
    46    25    44    1
