
     RDKit          3D

 87 90  0  0  0  0  0  0  0  0999 V2000
   10.6515    1.4708   -0.7139 C   0  0  0  0  0  0  0  0  0  0  0  0
   10.2375    1.1072    0.6712 C   0  0  0  0  0  0  0  0  0  0  0  0
    9.1643    1.9601    1.2679 C   0  0  0  0  0  0  0  0  0  0  0  0
    7.8721    1.9783    0.5331 C   0  0  0  0  0  0  0  0  0  0  0  0
    7.2293    0.6210    0.4089 C   0  0  0  0  0  0  0  0  0  0  0  0
    6.9209   -0.0167    1.7177 C   0  0  0  0  0  0  0  0  0  0  0  0
    6.3202   -1.2776    1.4915 O   0  0  0  0  0  0  0  0  0  0  0  0
    6.8714   -2.3265    0.8555 C   0  0  0  0  0  0  0  0  0  0  0  0
    8.0577   -2.2747    0.3735 O   0  0  0  0  0  0  0  0  0  0  0  0
    7.2708   -3.5037    0.2338 N   0  0  0  0  0  0  0  0  0  0  0  0
    6.5337   -4.3407   -0.3799 C   0  0  0  0  0  0  0  0  0  0  0  0
    5.9061   -5.4153   -1.1136 N   0  0  0  0  0  0  0  0  0  0  0  0
    5.1720   -3.7259   -0.2696 C   0  0  0  0  0  0  0  0  0  0  0  0
    5.0667   -2.4374   -0.8332 C   0  0  0  0  0  0  0  0  0  0  0  0
    3.9338   -1.6044   -0.8363 C   0  0  0  0  0  0  0  0  0  0  0  0
    2.8262   -2.1061   -0.2275 C   0  0  0  0  0  0  0  0  0  0  0  0
    1.6314   -1.3613   -0.1537 N   0  0  0  0  0  0  0  0  0  0  0  0
    1.5455   -0.0203   -0.7099 C   0  0  0  0  0  0  0  0  0  0  0  0
    0.1375    0.4566   -0.4561 C   0  0  0  0  0  0  0  0  0  0  0  0
   -0.9084    0.3196   -1.2916 N   0  0  0  0  0  0  0  0  0  0  0  0
   -2.0117    0.8477   -0.7219 C   0  0  0  0  0  0  0  0  0  0  0  0
   -1.6636    1.3336    0.5055 C   0  0  0  0  0  0  0  0  0  0  0  0
   -2.5569    1.9326    1.3525 C   0  0  0  0  0  0  0  0  0  0  0  0
   -3.8642    2.0439    0.9354 C   0  0  0  0  0  0  0  0  0  0  0  0
   -4.1756    1.5430   -0.3062 C   0  0  0  0  0  0  0  0  0  0  0  0
   -3.2931    0.9377   -1.1733 C   0  0  0  0  0  0  0  0  0  0  0  0
   -5.5712    1.6744   -0.6920 C   0  0  0  0  0  0  0  0  0  0  0  0
   -6.1208    2.7872   -0.3858 O   0  0  0  0  0  0  0  0  0  0  0  0
   -6.7658    1.1893   -1.2800 N   0  0  0  0  0  0  0  0  0  0  0  0
   -6.7187   -0.1181   -1.8501 C   0  0  0  0  0  0  0  0  0  0  0  0
   -7.0796   -1.2154   -0.8913 C   0  0  0  0  0  0  0  0  0  0  0  0
   -8.4665   -1.0839   -0.3863 C   0  0  0  0  0  0  0  0  0  0  0  0
   -9.3968   -0.2488   -0.5669 O   0  0  0  0  0  0  0  0  0  0  0  0
   -8.8767   -2.0808    0.4794 O   0  0  0  0  0  0  0  0  0  0  0  0
  -10.2043   -2.0378    1.0136 C   0  0  0  0  0  0  0  0  0  0  0  0
  -10.4238   -3.2357    1.9206 C   0  0  0  0  0  0  0  0  0  0  0  0
   -7.5525    2.3436   -1.0160 C   0  0  0  0  0  0  0  0  0  0  0  0
   -8.2519    2.5785    0.1039 N   0  0  0  0  0  0  0  0  0  0  0  0
   -8.9622    3.6992    0.2309 C   0  0  0  0  0  0  0  0  0  0  0  0
   -8.9879    4.6181   -0.7709 C   0  0  0  0  0  0  0  0  0  0  0  0
   -8.2939    4.4633   -1.9726 C   0  0  0  0  0  0  0  0  0  0  0  0
   -7.5824    3.2882   -2.0389 C   0  0  0  0  0  0  0  0  0  0  0  0
   -0.3323    1.0776    0.6394 N   0  0  0  0  0  0  0  0  0  0  0  0
    0.4703    1.4233    1.7930 C   0  0  0  0  0  0  0  0  0  0  0  0
    2.8344   -3.3549    0.3493 C   0  0  0  0  0  0  0  0  0  0  0  0
    3.9664   -4.1354    0.3282 C   0  0  0  0  0  0  0  0  0  0  0  0
   11.7388    1.2195   -0.8836 H   0  0  0  0  0  0  0  0  0  0  0  0
   10.1283    0.8279   -1.4822 H   0  0  0  0  0  0  0  0  0  0  0  0
   10.5375    2.5312   -0.9662 H   0  0  0  0  0  0  0  0  0  0  0  0
   11.1276    1.2159    1.3480 H   0  0  0  0  0  0  0  0  0  0  0  0
    9.9981    0.0248    0.6783 H   0  0  0  0  0  0  0  0  0  0  0  0
    9.5549    3.0181    1.2421 H   0  0  0  0  0  0  0  0  0  0  0  0
    9.0519    1.6914    2.3240 H   0  0  0  0  0  0  0  0  0  0  0  0
    7.1692    2.6101    1.1029 H   0  0  0  0  0  0  0  0  0  0  0  0
    7.9745    2.3933   -0.4697 H   0  0  0  0  0  0  0  0  0  0  0  0
    7.7790   -0.0661   -0.2290 H   0  0  0  0  0  0  0  0  0  0  0  0
    6.2505    0.8016   -0.1103 H   0  0  0  0  0  0  0  0  0  0  0  0
    6.2079    0.5866    2.3014 H   0  0  0  0  0  0  0  0  0  0  0  0
    7.8139   -0.1525    2.3657 H   0  0  0  0  0  0  0  0  0  0  0  0
    6.8557   -5.5691   -1.4580 H   0  0  0  0  0  0  0  0  0  0  0  0
    6.5163   -6.0199   -1.7418 H   0  0  0  0  0  0  0  0  0  0  0  0
    5.9270   -1.9786   -1.3490 H   0  0  0  0  0  0  0  0  0  0  0  0
    3.9501   -0.6469   -1.2898 H   0  0  0  0  0  0  0  0  0  0  0  0
    0.7751   -1.7876    0.3180 H   0  0  0  0  0  0  0  0  0  0  0  0
    1.6404   -0.1113   -1.8150 H   0  0  0  0  0  0  0  0  0  0  0  0
    2.2958    0.6657   -0.3236 H   0  0  0  0  0  0  0  0  0  0  0  0
   -2.2745    2.3175    2.3262 H   0  0  0  0  0  0  0  0  0  0  0  0
   -4.5927    2.5103    1.5772 H   0  0  0  0  0  0  0  0  0  0  0  0
   -3.5217    0.5459   -2.1483 H   0  0  0  0  0  0  0  0  0  0  0  0
   -5.7202   -0.3107   -2.2517 H   0  0  0  0  0  0  0  0  0  0  0  0
   -7.4022   -0.1632   -2.7547 H   0  0  0  0  0  0  0  0  0  0  0  0
   -6.3409   -1.1765   -0.0490 H   0  0  0  0  0  0  0  0  0  0  0  0
   -6.9693   -2.1815   -1.4218 H   0  0  0  0  0  0  0  0  0  0  0  0
  -10.3659   -1.0969    1.5536 H   0  0  0  0  0  0  0  0  0  0  0  0
  -10.9398   -2.1130    0.1847 H   0  0  0  0  0  0  0  0  0  0  0  0
  -10.0426   -3.0241    2.9346 H   0  0  0  0  0  0  0  0  0  0  0  0
  -11.4986   -3.5070    1.9904 H   0  0  0  0  0  0  0  0  0  0  0  0
   -9.8743   -4.1350    1.5154 H   0  0  0  0  0  0  0  0  0  0  0  0
   -9.4851    3.7904    1.1687 H   0  0  0  0  0  0  0  0  0  0  0  0
   -9.5904    5.4961   -0.5796 H   0  0  0  0  0  0  0  0  0  0  0  0
   -8.3382    5.2157   -2.7473 H   0  0  0  0  0  0  0  0  0  0  0  0
   -7.0211    3.1280   -2.9689 H   0  0  0  0  0  0  0  0  0  0  0  0
   -0.2090    1.6884    2.6344 H   0  0  0  0  0  0  0  0  0  0  0  0
    1.1398    0.6338    2.1430 H   0  0  0  0  0  0  0  0  0  0  0  0
    1.0332    2.3407    1.5196 H   0  0  0  0  0  0  0  0  0  0  0  0
    2.0265   -3.8563    0.8570 H   0  0  0  0  0  0  0  0  0  0  0  0
    4.1358   -5.1301    0.7321 H   0  0  0  0  0  0  0  0  0  0  0  0
  1  2  1  0
  2  3  1  0
  3  4  1  0
  4  5  1  0
  5  6  1  0
  6  7  1  0
  7  8  1  0
  8  9  2  0
  8 10  1  0
 10 11  2  0
 11 12  1  0
 11 13  1  0
 13 14  2  0
 14 15  1  0
 15 16  2  0
 16 17  1  0
 17 18  1  0
 18 19  1  0
 19 20  2  0
 20 21  1  0
 21 22  2  0
 22 23  1  0
 23 24  2  0
 24 25  1  0
 25 26  2  0
 25 27  1  0
 27 28  2  0
 27 29  1  0
 29 30  1  0
 30 31  1  0
 31 32  1  0
 32 33  2  0
 32 34  1  0
 34 35  1  0
 35 36  1  0
 29 37  1  0
 37 38  2  0
 38 39  1  0
 39 40  2  0
 40 41  1  0
 41 42  2  0
 22 43  1  0
 43 44  1  0
 16 45  1  0
 45 46  2  0
 46 13  1  0
 43 19  1  0
 26 21  1  0
 42 37  1  0
  1 47  1  0
  1 48  1  0
  1 49  1  0
  2 50  1  0
  2 51  1  0
  3 52  1  0
  3 53  1  0
  4 54  1  0
  4 55  1  0
  5 56  1  0
  5 57  1  0
  6 58  1  0
  6 59  1  0
 12 60  1  0
 12 61  1  0
 14 62  1  0
 15 63  1  0
 17 64  1  0
 18 65  1  0
 18 66  1  0
 23 67  1  0
 24 68  1  0
 26 69  1  0
 30 70  1  0
 30 71  1  0
 31 72  1  0
 31 73  1  0
 35 74  1  0
 35 75  1  0
 36 76  1  0
 36 77  1  0
 36 78  1  0
 39 79  1  0
 40 80  1  0
 41 81  1  0
 42 82  1  0
 44 83  1  0
 44 84  1  0
 44 85  1  0
 45 86  1  0
 46 87  1  0
M  END
$$$$
