@<TRIPOS>MOLECULE
*****
 87 90 0 0 0
SMALL
GASTEIGER

@<TRIPOS>ATOM
      1 C          10.6515    1.4708   -0.7139 C.3     1  UNL1       -0.0653
      2 C          10.2375    1.1072    0.6712 C.3     1  UNL1       -0.0559
      3 C           9.1643    1.9601    1.2679 C.3     1  UNL1       -0.0532
      4 C           7.8721    1.9783    0.5331 C.3     1  UNL1       -0.0500
      5 C           7.2293    0.6210    0.4089 C.3     1  UNL1       -0.0184
      6 C           6.9209   -0.0167    1.7177 C.3     1  UNL1        0.0963
      7 O           6.3202   -1.2776    1.4915 O.3     1  UNL1       -0.4295
      8 C           6.8714   -2.3265    0.8555 C.2     1  UNL1        0.5417
      9 O           8.0577   -2.2747    0.3735 O.2     1  UNL1       -0.1977
     10 N           7.2708   -3.5037    0.2338 N.am    1  UNL1        0.0652
     11 C           6.5337   -4.3407   -0.3799 C.2     1  UNL1        0.3144
     12 N           5.9061   -5.4153   -1.1136 N.pl3   1  UNL1       -0.2476
     13 C           5.1720   -3.7259   -0.2696 C.ar    1  UNL1        0.0636
     14 C           5.0667   -2.4374   -0.8332 C.ar    1  UNL1       -0.0453
     15 C           3.9338   -1.6044   -0.8363 C.ar    1  UNL1       -0.0400
     16 C           2.8262   -2.1061   -0.2275 C.ar    1  UNL1        0.0275
     17 N           1.6314   -1.3613   -0.1537 N.pl3   1  UNL1       -0.3367
     18 C           1.5455   -0.0203   -0.7099 C.3     1  UNL1        0.0674
     19 C           0.1375    0.4566   -0.4561 C.ar    1  UNL1        0.1277
     20 N          -0.9084    0.3196   -1.2916 N.ar    1  UNL1       -0.2307
     21 C          -2.0117    0.8477   -0.7219 C.ar    1  UNL1        0.0901
     22 C          -1.6636    1.3336    0.5055 C.ar    1  UNL1        0.0686
     23 C          -2.5569    1.9326    1.3525 C.ar    1  UNL1       -0.0353
     24 C          -3.8642    2.0439    0.9354 C.ar    1  UNL1       -0.0475
     25 C          -4.1756    1.5430   -0.3062 C.ar    1  UNL1        0.0394
     26 C          -3.2931    0.9377   -1.1733 C.ar    1  UNL1       -0.0221
     27 C          -5.5712    1.6744   -0.6920 C.2     1  UNL1        0.2520
     28 O          -6.1208    2.7872   -0.3858 O.2     1  UNL1       -0.2696
     29 N          -6.7658    1.1893   -1.2800 N.am    1  UNL1       -0.2516
     30 C          -6.7187   -0.1181   -1.8501 C.3     1  UNL1        0.0315
     31 C          -7.0796   -1.2154   -0.8913 C.3     1  UNL1        0.0611
     32 C          -8.4665   -1.0839   -0.3863 C.2     1  UNL1        0.3086
     33 O          -9.3968   -0.2488   -0.5669 O.2     1  UNL1       -0.2508
     34 O          -8.8767   -2.0808    0.4794 O.3     1  UNL1       -0.4649
     35 C         -10.2043   -2.0378    1.0136 C.3     1  UNL1        0.0896
     36 C         -10.4238   -3.2357    1.9206 C.3     1  UNL1       -0.0306
     37 C          -7.5525    2.3436   -1.0160 C.ar    1  UNL1        0.1277
     38 N          -8.2519    2.5785    0.1039 N.ar    1  UNL1       -0.2399
     39 C          -8.9622    3.6992    0.2309 C.ar    1  UNL1        0.0297
     40 C          -8.9879    4.6181   -0.7709 C.ar    1  UNL1       -0.0435
     41 C          -8.2939    4.4633   -1.9726 C.ar    1  UNL1       -0.0571
     42 C          -7.5824    3.2882   -2.0389 C.ar    1  UNL1       -0.0213
     43 N          -0.3323    1.0776    0.6394 N.ar    1  UNL1       -0.3294
     44 C           0.4703    1.4233    1.7930 C.3     1  UNL1        0.0136
     45 C           2.8344   -3.3549    0.3493 C.ar    1  UNL1       -0.0400
     46 C           3.9664   -4.1354    0.3282 C.ar    1  UNL1       -0.0453
     47 H          11.7388    1.2195   -0.8836 H       1  UNL1        0.0230
     48 H          10.1283    0.8279   -1.4822 H       1  UNL1        0.0230
     49 H          10.5375    2.5312   -0.9662 H       1  UNL1        0.0230
     50 H          11.1276    1.2159    1.3480 H       1  UNL1        0.0263
     51 H           9.9981    0.0248    0.6783 H       1  UNL1        0.0263
     52 H           9.5549    3.0181    1.2421 H       1  UNL1        0.0265
     53 H           9.0519    1.6914    2.3240 H       1  UNL1        0.0265
     54 H           7.1692    2.6101    1.1029 H       1  UNL1        0.0266
     55 H           7.9745    2.3933   -0.4697 H       1  UNL1        0.0266
     56 H           7.7790   -0.0661   -0.2290 H       1  UNL1        0.0298
     57 H           6.2505    0.8016   -0.1103 H       1  UNL1        0.0298
     58 H           6.2079    0.5866    2.3014 H       1  UNL1        0.0699
     59 H           7.8139   -0.1525    2.3657 H       1  UNL1        0.0699
     60 H           6.8557   -5.5691   -1.4580 H       1  UNL1        0.2883
     61 H           6.5163   -6.0199   -1.7418 H       1  UNL1        0.2883
     62 H           5.9270   -1.9786   -1.3490 H       1  UNL1        0.0626
     63 H           3.9501   -0.6469   -1.2898 H       1  UNL1        0.0636
     64 H           0.7751   -1.7876    0.3180 H       1  UNL1        0.1465
     65 H           1.6404   -0.1113   -1.8150 H       1  UNL1        0.0541
     66 H           2.2958    0.6657   -0.3236 H       1  UNL1        0.0541
     67 H          -2.2745    2.3175    2.3262 H       1  UNL1        0.0639
     68 H          -4.5927    2.5103    1.5772 H       1  UNL1        0.0626
     69 H          -3.5217    0.5459   -2.1483 H       1  UNL1        0.0647
     70 H          -5.7202   -0.3107   -2.2517 H       1  UNL1        0.0474
     71 H          -7.4022   -0.1632   -2.7547 H       1  UNL1        0.0474
     72 H          -6.3409   -1.1765   -0.0490 H       1  UNL1        0.0393
     73 H          -6.9693   -2.1815   -1.4218 H       1  UNL1        0.0393
     74 H         -10.3659   -1.0969    1.5536 H       1  UNL1        0.0694
     75 H         -10.9398   -2.1130    0.1847 H       1  UNL1        0.0694
     76 H         -10.0426   -3.0241    2.9346 H       1  UNL1        0.0262
     77 H         -11.4986   -3.5070    1.9904 H       1  UNL1        0.0262
     78 H          -9.8743   -4.1350    1.5154 H       1  UNL1        0.0262
     79 H          -9.4851    3.7904    1.1687 H       1  UNL1        0.0830
     80 H          -9.5904    5.4961   -0.5796 H       1  UNL1        0.0633
     81 H          -8.3382    5.2157   -2.7473 H       1  UNL1        0.0619
     82 H          -7.0211    3.1280   -2.9689 H       1  UNL1        0.0652
     83 H          -0.2090    1.6884    2.6344 H       1  UNL1        0.0456
     84 H           1.1398    0.6338    2.1430 H       1  UNL1        0.0456
     85 H           1.0332    2.3407    1.5196 H       1  UNL1        0.0456
     86 H           2.0265   -3.8563    0.8570 H       1  UNL1        0.0636
     87 H           4.1358   -5.1301    0.7321 H       1  UNL1        0.0626
@<TRIPOS>BOND
     1     1     2    1
     2     2     3    1
     3     3     4    1
     4     4     5    1
     5     5     6    1
     6     6     7    1
     7     7     8    1
     8     8     9    2
     9     8    10    1
    10    10    11    2
    11    11    12    1
    12    11    13    1
    13    13    14   ar
    14    14    15   ar
    15    15    16   ar
    16    16    17    1
    17    17    18    1
    18    18    19    1
    19    19    20   ar
    20    20    21   ar
    21    21    22   ar
    22    22    23   ar
    23    23    24   ar
    24    24    25   ar
    25    25    26   ar
    26    25    27    1
    27    27    28    2
    28    27    29   am
    29    29    30    1
    30    30    31    1
    31    31    32    1
    32    32    33    2
    33    32    34    1
    34    34    35    1
    35    35    36    1
    36    29    37    1
    37    37    38   ar
    38    38    39   ar
    39    39    40   ar
    40    40    41   ar
    41    41    42   ar
    42    22    43   ar
    43    43    44    1
    44    16    45   ar
    45    45    46   ar
    46    46    13   ar
    47    43    19   ar
    48    26    21   ar
    49    42    37   ar
    50     1    47    1
    51     1    48    1
    52     1    49    1
    53     2    50    1
    54     2    51    1
    55     3    52    1
    56     3    53    1
    57     4    54    1
    58     4    55    1
    59     5    56    1
    60     5    57    1
    61     6    58    1
    62     6    59    1
    63    12    60    1
    64    12    61    1
    65    14    62    1
    66    15    63    1
    67    17    64    1
    68    18    65    1
    69    18    66    1
    70    23    67    1
    71    24    68    1
    72    26    69    1
    73    30    70    1
    74    30    71    1
    75    31    72    1
    76    31    73    1
    77    35    74    1
    78    35    75    1
    79    36    76    1
    80    36    77    1
    81    36    78    1
    82    39    79    1
    83    40    80    1
    84    41    81    1
    85    42    82    1
    86    44    83    1
    87    44    84    1
    88    44    85    1
    89    45    86    1
    90    46    87    1
