@<TRIPOS>MOLECULE
*****
 51 54 0 0 0
SMALL
GASTEIGER

@<TRIPOS>ATOM
      1 C           5.4457   -2.6757    1.2758 C.3     1  UNL1       -0.0025
      2 C           5.6181   -2.4280   -0.1813 C.1     1  UNL1       -0.1022
      3 C           5.7679   -2.2226   -1.3933 C.1     1  UNL1       -0.0617
      4 C           5.9477   -1.9602   -2.8795 C.3     1  UNL1        0.1499
      5 O           6.1250   -0.5180   -2.9067 O.3     1  UNL1       -0.4780
      6 C           5.0969    0.2388   -2.3399 C.ar    1  UNL1        0.1399
      7 C           5.1422    1.5881   -2.1813 C.ar    1  UNL1       -0.0162
      8 C           4.0953    2.3176   -1.5858 C.ar    1  UNL1       -0.0277
      9 C           2.9862    1.6298   -1.1523 C.ar    1  UNL1        0.1259
     10 C           1.8551    2.1743   -0.4062 C.2     1  UNL1        0.2666
     11 O           1.7735    3.4029   -0.1901 O.2     1  UNL1       -0.2682
     12 N           0.9076    1.3226    0.0788 N.am    1  UNL1       -0.2802
     13 C          -0.2739    1.3666    0.8597 C.ar    1  UNL1        0.0342
     14 C          -0.1049    1.1291    2.2738 C.ar    1  UNL1       -0.0377
     15 C          -1.2322    0.8519    2.9660 C.ar    1  UNL1       -0.0243
     16 C          -2.4667    0.7906    2.3807 C.ar    1  UNL1        0.1292
     17 F          -3.5510    0.5796    3.2021 F       1  UNL1       -0.2051
     18 C          -2.6736    1.0227    1.0387 C.ar    1  UNL1        0.0228
     19 C          -3.8821    0.6238    0.2436 C.3     1  UNL1        0.1603
     20 C          -3.9622    1.2745   -1.0919 C.3     1  UNL1        0.2686
     21 F          -5.0934    0.8809   -1.7706 F       1  UNL1       -0.2062
     22 F          -3.9630    2.6587   -1.0384 F       1  UNL1       -0.2062
     23 N          -3.8273   -0.8027    0.1363 N.2     1  UNL1       -0.2194
     24 C          -4.2587   -1.7561    0.7814 C.2     1  UNL1        0.2764
     25 N          -4.0098   -3.1009    0.3866 N.pl3   1  UNL1       -0.3134
     26 O          -5.0289   -1.4512    1.9163 O.2     1  UNL1       -0.4622
     27 C          -5.7123   -0.2017    1.8322 C.3     1  UNL1        0.1091
     28 C          -6.3879    0.1435    0.5567 C.3     1  UNL1       -0.0064
     29 C          -5.1780    0.8731    1.0381 C.3     1  UNL1        0.0344
     30 C          -1.5016    1.3192    0.3171 C.ar    1  UNL1       -0.0321
     31 N           3.0153    0.3014   -1.3520 N.ar    1  UNL1       -0.2467
     32 C           3.9382   -0.4442   -1.8940 C.ar    1  UNL1        0.0701
     33 H           6.4807   -2.4914    1.6773 H       1  UNL1        0.0362
     34 H           5.0945   -3.6856    1.4582 H       1  UNL1        0.0362
     35 H           4.7347   -1.8746    1.6545 H       1  UNL1        0.0362
     36 H           5.0740   -2.3010   -3.3811 H       1  UNL1        0.0837
     37 H           6.9186   -2.4142   -3.1046 H       1  UNL1        0.0837
     38 H           6.0141    2.1587   -2.5224 H       1  UNL1        0.0655
     39 H           4.1299    3.3701   -1.4597 H       1  UNL1        0.0641
     40 H           1.1289    0.2367   -0.2236 H       1  UNL1        0.1552
     41 H           0.8864    1.1765    2.6403 H       1  UNL1        0.0637
     42 H          -1.1517    0.6113    4.0561 H       1  UNL1        0.0647
     43 H          -3.0994    0.9474   -1.7201 H       1  UNL1        0.1047
     44 H          -3.3391   -3.2917   -0.3774 H       1  UNL1        0.1466
     45 H          -4.5024   -3.8577    0.8775 H       1  UNL1        0.1466
     46 H          -6.2987    0.0095    2.7747 H       1  UNL1        0.0737
     47 H          -7.3682    0.6124    0.5595 H       1  UNL1        0.0306
     48 H          -6.2097   -0.5002   -0.3648 H       1  UNL1        0.0306
     49 H          -5.2975    1.9092    1.3350 H       1  UNL1        0.0366
     50 H          -1.6189    1.5165   -0.7393 H       1  UNL1        0.0640
     51 H           3.8165   -1.5121   -2.0606 H       1  UNL1        0.0867
@<TRIPOS>BOND
     1     1     2    1
     2     2     3    3
     3     3     4    1
     4     4     5    1
     5     5     6    1
     6     6     7   ar
     7     7     8   ar
     8     8     9   ar
     9     9    10    1
    10    10    11    2
    11    10    12   am
    12    12    13    1
    13    13    14   ar
    14    14    15   ar
    15    15    16   ar
    16    16    17    1
    17    16    18   ar
    18    18    19    1
    19    19    20    1
    20    20    21    1
    21    20    22    1
    22    19    23    1
    23    23    24    2
    24    24    25    1
    25    24    26    1
    26    26    27    1
    27    27    28    1
    28    28    29    1
    29    18    30   ar
    30     9    31   ar
    31    31    32   ar
    32    32     6   ar
    33    30    13   ar
    34    29    19    1
    35    29    27    1
    36     1    33    1
    37     1    34    1
    38     1    35    1
    39     4    36    1
    40     4    37    1
    41     7    38    1
    42     8    39    1
    43    12    40    1
    44    14    41    1
    45    15    42    1
    46    20    43    1
    47    25    44    1
    48    25    45    1
    49    27    46    1
    50    28    47    1
    51    28    48    1
    52    29    49    1
    53    30    50    1
    54    32    51    1
