
     RDKit          3D

 51 54  0  0  0  0  0  0  0  0999 V2000
    5.4457   -2.6757    1.2758 C   0  0  0  0  0  0  0  0  0  0  0  0
    5.6181   -2.4280   -0.1813 C   0  0  0  0  0  0  0  0  0  0  0  0
    5.7679   -2.2226   -1.3933 C   0  0  0  0  0  0  0  0  0  0  0  0
    5.9477   -1.9602   -2.8795 C   0  0  0  0  0  0  0  0  0  0  0  0
    6.1250   -0.5180   -2.9067 O   0  0  0  0  0  0  0  0  0  0  0  0
    5.0969    0.2388   -2.3399 C   0  0  0  0  0  0  0  0  0  0  0  0
    5.1422    1.5881   -2.1813 C   0  0  0  0  0  0  0  0  0  0  0  0
    4.0953    2.3176   -1.5858 C   0  0  0  0  0  0  0  0  0  0  0  0
    2.9862    1.6298   -1.1523 C   0  0  0  0  0  0  0  0  0  0  0  0
    1.8551    2.1743   -0.4062 C   0  0  0  0  0  0  0  0  0  0  0  0
    1.7735    3.4029   -0.1901 O   0  0  0  0  0  0  0  0  0  0  0  0
    0.9076    1.3226    0.0788 N   0  0  0  0  0  0  0  0  0  0  0  0
   -0.2739    1.3666    0.8597 C   0  0  0  0  0  0  0  0  0  0  0  0
   -0.1049    1.1291    2.2738 C   0  0  0  0  0  0  0  0  0  0  0  0
   -1.2322    0.8519    2.9660 C   0  0  0  0  0  0  0  0  0  0  0  0
   -2.4667    0.7906    2.3807 C   0  0  0  0  0  0  0  0  0  0  0  0
   -3.5510    0.5796    3.2021 F   0  0  0  0  0  0  0  0  0  0  0  0
   -2.6736    1.0227    1.0387 C   0  0  0  0  0  0  0  0  0  0  0  0
   -3.8821    0.6238    0.2436 C   0  0  1  0  0  0  0  0  0  0  0  0
   -3.9622    1.2745   -1.0919 C   0  0  0  0  0  0  0  0  0  0  0  0
   -5.0934    0.8809   -1.7706 F   0  0  0  0  0  0  0  0  0  0  0  0
   -3.9630    2.6587   -1.0384 F   0  0  0  0  0  0  0  0  0  0  0  0
   -3.8273   -0.8027    0.1363 N   0  0  0  0  0  0  0  0  0  0  0  0
   -4.2587   -1.7561    0.7814 C   0  0  0  0  0  0  0  0  0  0  0  0
   -4.0098   -3.1009    0.3866 N   0  0  0  0  0  0  0  0  0  0  0  0
   -5.0289   -1.4512    1.9163 O   0  0  0  0  0  0  0  0  0  0  0  0
   -5.7123   -0.2017    1.8322 C   0  0  2  0  0  0  0  0  0  0  0  0
   -6.3879    0.1435    0.5567 C   0  0  0  0  0  0  0  0  0  0  0  0
   -5.1780    0.8731    1.0381 C   0  0  2  0  0  0  0  0  0  0  0  0
   -1.5016    1.3192    0.3171 C   0  0  0  0  0  0  0  0  0  0  0  0
    3.0153    0.3014   -1.3520 N   0  0  0  0  0  0  0  0  0  0  0  0
    3.9382   -0.4442   -1.8940 C   0  0  0  0  0  0  0  0  0  0  0  0
    6.4807   -2.4914    1.6773 H   0  0  0  0  0  0  0  0  0  0  0  0
    5.0945   -3.6856    1.4582 H   0  0  0  0  0  0  0  0  0  0  0  0
    4.7347   -1.8746    1.6545 H   0  0  0  0  0  0  0  0  0  0  0  0
    5.0740   -2.3010   -3.3811 H   0  0  0  0  0  0  0  0  0  0  0  0
    6.9186   -2.4142   -3.1046 H   0  0  0  0  0  0  0  0  0  0  0  0
    6.0141    2.1587   -2.5224 H   0  0  0  0  0  0  0  0  0  0  0  0
    4.1299    3.3701   -1.4597 H   0  0  0  0  0  0  0  0  0  0  0  0
    1.1289    0.2367   -0.2236 H   0  0  0  0  0  0  0  0  0  0  0  0
    0.8864    1.1765    2.6403 H   0  0  0  0  0  0  0  0  0  0  0  0
   -1.1517    0.6113    4.0561 H   0  0  0  0  0  0  0  0  0  0  0  0
   -3.0994    0.9474   -1.7201 H   0  0  0  0  0  0  0  0  0  0  0  0
   -3.3391   -3.2917   -0.3774 H   0  0  0  0  0  0  0  0  0  0  0  0
   -4.5024   -3.8577    0.8775 H   0  0  0  0  0  0  0  0  0  0  0  0
   -6.2987    0.0095    2.7747 H   0  0  0  0  0  0  0  0  0  0  0  0
   -7.3682    0.6124    0.5595 H   0  0  0  0  0  0  0  0  0  0  0  0
   -6.2097   -0.5002   -0.3648 H   0  0  0  0  0  0  0  0  0  0  0  0
   -5.2975    1.9092    1.3350 H   0  0  0  0  0  0  0  0  0  0  0  0
   -1.6189    1.5165   -0.7393 H   0  0  0  0  0  0  0  0  0  0  0  0
    3.8165   -1.5121   -2.0606 H   0  0  0  0  0  0  0  0  0  0  0  0
  1  2  1  0
  2  3  3  0
  3  4  1  0
  4  5  1  0
  5  6  1  0
  6  7  2  0
  7  8  1  0
  8  9  2  0
  9 10  1  0
 10 11  2  0
 10 12  1  0
 12 13  1  0
 13 14  2  0
 14 15  1  0
 15 16  2  0
 16 17  1  0
 16 18  1  0
 18 19  1  0
 19 20  1  6
 20 21  1  0
 20 22  1  0
 19 23  1  0
 23 24  2  0
 24 25  1  0
 24 26  1  0
 26 27  1  0
 27 28  1  0
 28 29  1  0
 18 30  2  0
  9 31  1  0
 31 32  2  0
 32  6  1  0
 30 13  1  0
 29 19  1  0
 29 27  1  0
  1 33  1  0
  1 34  1  0
  1 35  1  0
  4 36  1  0
  4 37  1  0
  7 38  1  0
  8 39  1  0
 12 40  1  0
 14 41  1  0
 15 42  1  0
 20 43  1  0
 25 44  1  0
 25 45  1  0
 27 46  1  1
 28 47  1  0
 28 48  1  0
 29 49  1  1
 30 50  1  0
 32 51  1  0
M  END
$$$$
