@<TRIPOS>MOLECULE
*****
 46 48 0 0 0
SMALL
GASTEIGER

@<TRIPOS>ATOM
      1 C           3.1787   -1.0574    2.5250 C.3     1  UNL1        0.0788
      2 O           2.4574   -0.3801    1.5262 O.3     1  UNL1       -0.4948
      3 C           2.6182   -0.7355    0.2010 C.ar    1  UNL1        0.1233
      4 C           3.5032   -1.7676   -0.0951 C.ar    1  UNL1       -0.0197
      5 C           3.7014   -2.1624   -1.4000 C.ar    1  UNL1       -0.0583
      6 C           3.0274   -1.5397   -2.4101 C.ar    1  UNL1       -0.0613
      7 C           2.1538   -0.5176   -2.0921 C.ar    1  UNL1       -0.0550
      8 C           1.9312   -0.0981   -0.8088 C.ar    1  UNL1       -0.0039
      9 C           1.0114    0.9828   -0.5234 C.3     1  UNL1       -0.0044
     10 C          -0.3172    0.6342    0.0359 C.3     1  UNL1        0.0398
     11 C          -1.0160    1.9590    0.2249 C.ar    1  UNL1       -0.0300
     12 C          -1.0633    2.5823    1.4410 C.ar    1  UNL1       -0.0571
     13 C          -1.6867    3.7878    1.6632 C.ar    1  UNL1       -0.0615
     14 C          -2.3018    4.4121    0.6089 C.ar    1  UNL1       -0.0617
     15 C          -2.2781    3.8220   -0.6270 C.ar    1  UNL1       -0.0615
     16 C          -1.6369    2.5935   -0.8300 C.ar    1  UNL1       -0.0571
     17 N          -1.1912   -0.1584   -0.7434 N.3     1  UNL1       -0.2927
     18 C          -2.4368   -0.3017    0.0226 C.3     1  UNL1        0.0121
     19 C          -2.3376   -1.3835    1.0586 C.3     1  UNL1        0.0087
     20 N          -2.1277   -2.6924    0.4775 N.3     1  UNL1       -0.3136
     21 C          -1.8909   -2.5043   -0.9307 C.3     1  UNL1        0.0087
     22 C          -0.7702   -1.4646   -1.1069 C.3     1  UNL1        0.0121
     23 H           2.8537   -0.7056    3.5457 H       1  UNL1        0.0660
     24 H           4.2841   -0.8938    2.4224 H       1  UNL1        0.0660
     25 H           3.0257   -2.1518    2.4258 H       1  UNL1        0.0660
     26 H           4.0447   -2.2742    0.6668 H       1  UNL1        0.0654
     27 H           4.3964   -2.9754   -1.6493 H       1  UNL1        0.0619
     28 H           3.1757   -1.8413   -3.4347 H       1  UNL1        0.0618
     29 H           1.6340   -0.0416   -2.9034 H       1  UNL1        0.0621
     30 H           0.8761    1.6348   -1.4454 H       1  UNL1        0.0333
     31 H           1.4446    1.7384    0.2082 H       1  UNL1        0.0333
     32 H          -0.2082    0.1926    1.0488 H       1  UNL1        0.0515
     33 H          -0.5679    2.0728    2.2742 H       1  UNL1        0.0621
     34 H          -1.6998    4.2468    2.6446 H       1  UNL1        0.0618
     35 H          -2.7962    5.3683    0.7839 H       1  UNL1        0.0618
     36 H          -2.7711    4.3357   -1.4414 H       1  UNL1        0.0618
     37 H          -1.6401    2.1609   -1.8188 H       1  UNL1        0.0621
     38 H          -2.6563    0.6473    0.5755 H       1  UNL1        0.0439
     39 H          -3.3037   -0.4899   -0.6254 H       1  UNL1        0.0439
     40 H          -1.6017   -1.1832    1.8412 H       1  UNL1        0.0437
     41 H          -3.3359   -1.4199    1.5629 H       1  UNL1        0.0437
     42 H          -2.9305   -3.3363    0.6079 H       1  UNL1        0.1220
     43 H          -1.4883   -3.4601   -1.3244 H       1  UNL1        0.0437
     44 H          -2.7830   -2.2559   -1.5011 H       1  UNL1        0.0437
     45 H          -0.5287   -1.5591   -2.2065 H       1  UNL1        0.0439
     46 H           0.0480   -1.8196   -0.4748 H       1  UNL1        0.0439
@<TRIPOS>BOND
     1     1     2    1
     2     2     3    1
     3     3     4   ar
     4     4     5   ar
     5     5     6   ar
     6     6     7   ar
     7     7     8   ar
     8     8     9    1
     9     9    10    1
    10    10    11    1
    11    11    12   ar
    12    12    13   ar
    13    13    14   ar
    14    14    15   ar
    15    15    16   ar
    16    10    17    1
    17    17    18    1
    18    18    19    1
    19    19    20    1
    20    20    21    1
    21    21    22    1
    22     8     3   ar
    23    16    11   ar
    24    22    17    1
    25     1    23    1
    26     1    24    1
    27     1    25    1
    28     4    26    1
    29     5    27    1
    30     6    28    1
    31     7    29    1
    32     9    30    1
    33     9    31    1
    34    10    32    1
    35    12    33    1
    36    13    34    1
    37    14    35    1
    38    15    36    1
    39    16    37    1
    40    18    38    1
    41    18    39    1
    42    19    40    1
    43    19    41    1
    44    20    42    1
    45    21    43    1
    46    21    44    1
    47    22    45    1
    48    22    46    1
