
     RDKit          3D

 70 74  0  0  0  0  0  0  0  0999 V2000
   -8.8601    1.4184   -0.4603 C   0  0  0  0  0  0  0  0  0  0  0  0
   -8.2890    2.0574    0.7758 C   0  0  0  0  0  0  0  0  0  0  0  0
   -7.1785    1.3737    1.3536 N   0  0  0  0  0  0  0  0  0  0  0  0
   -6.0441    1.4672    0.4627 C   0  0  0  0  0  0  0  0  0  0  0  0
   -4.9317    0.5241    0.8968 C   0  0  0  0  0  0  0  0  0  0  0  0
   -5.3380   -0.8373    0.8543 N   0  0  0  0  0  0  0  0  0  0  0  0
   -4.8013   -1.6348   -0.1904 C   0  0  2  0  0  0  0  0  0  0  0  0
   -5.3784   -3.0417   -0.2092 C   0  0  0  0  0  0  0  0  0  0  0  0
   -3.3439   -1.7428   -0.1507 C   0  0  0  0  0  0  0  0  0  0  0  0
   -2.7959   -2.3993   -1.1160 O   0  0  0  0  0  0  0  0  0  0  0  0
   -2.4558   -1.2289    0.7975 N   0  0  0  0  0  0  0  0  0  0  0  0
   -1.0436   -1.4113    0.7084 C   0  0  0  0  0  0  0  0  0  0  0  0
   -0.4304   -2.4939    1.3342 C   0  0  0  0  0  0  0  0  0  0  0  0
    0.9349   -2.6734    1.2360 C   0  0  0  0  0  0  0  0  0  0  0  0
    1.6977   -1.7672    0.5078 C   0  0  0  0  0  0  0  0  0  0  0  0
    1.0590   -0.7034   -0.1017 C   0  0  0  0  0  0  0  0  0  0  0  0
    1.5666    0.3372   -0.8882 C   0  0  0  0  0  0  0  0  0  0  0  0
    2.9789    0.4765   -1.2139 C   0  0  0  0  0  0  0  0  0  0  0  0
    3.9445    0.5296   -0.3008 N   0  0  0  0  0  0  0  0  0  0  0  0
    5.2649    0.6454   -0.5953 C   0  0  0  0  0  0  0  0  0  0  0  0
    6.2431    0.7096    0.4301 N   0  0  0  0  0  0  0  0  0  0  0  0
    7.6328    0.7691    0.2159 C   0  0  0  0  0  0  0  0  0  0  0  0
    8.3314    0.7200   -0.9631 C   0  0  0  0  0  0  0  0  0  0  0  0
    9.6660    0.7952   -0.7122 N   0  0  0  0  0  0  0  0  0  0  0  0
   10.7216    0.7718   -1.7012 C   0  0  0  0  0  0  0  0  0  0  0  0
    9.8116    0.8903    0.6049 N   0  0  0  0  0  0  0  0  0  0  0  0
    8.6127    0.8786    1.2017 C   0  0  0  0  0  0  0  0  0  0  0  0
    8.3364    0.9576    2.5397 O   0  0  0  0  0  0  0  0  0  0  0  0
    9.3399    1.0684    3.5363 C   0  0  0  0  0  0  0  0  0  0  0  0
    5.5651    0.7067   -1.9059 N   0  0  0  0  0  0  0  0  0  0  0  0
    4.6495    0.6599   -2.8867 C   0  0  0  0  0  0  0  0  0  0  0  0
    3.3146    0.5420   -2.5602 C   0  0  0  0  0  0  0  0  0  0  0  0
    2.3563    0.4926   -3.5280 F   0  0  0  0  0  0  0  0  0  0  0  0
    0.4825    1.1004   -1.2287 C   0  0  0  0  0  0  0  0  0  0  0  0
   -0.6424    0.6116   -0.7162 N   0  0  0  0  0  0  0  0  0  0  0  0
   -0.2947   -0.4980   -0.0224 C   0  0  0  0  0  0  0  0  0  0  0  0
   -6.7448   -1.0376    1.0872 C   0  0  0  0  0  0  0  0  0  0  0  0
   -7.4337    0.0564    1.8263 C   0  0  0  0  0  0  0  0  0  0  0  0
   -8.2032    1.5104   -1.3526 H   0  0  0  0  0  0  0  0  0  0  0  0
   -9.7810    1.9981   -0.7249 H   0  0  0  0  0  0  0  0  0  0  0  0
   -9.2080    0.3789   -0.3013 H   0  0  0  0  0  0  0  0  0  0  0  0
   -9.1457    2.1451    1.5005 H   0  0  0  0  0  0  0  0  0  0  0  0
   -8.0234    3.1054    0.5241 H   0  0  0  0  0  0  0  0  0  0  0  0
   -5.6362    2.4938    0.5491 H   0  0  0  0  0  0  0  0  0  0  0  0
   -6.3259    1.3091   -0.5900 H   0  0  0  0  0  0  0  0  0  0  0  0
   -4.5737    0.8687    1.8873 H   0  0  0  0  0  0  0  0  0  0  0  0
   -4.1124    0.6856    0.1682 H   0  0  0  0  0  0  0  0  0  0  0  0
   -5.0754   -1.1735   -1.1724 H   0  0  0  0  0  0  0  0  0  0  0  0
   -6.3795   -3.0961   -0.6544 H   0  0  0  0  0  0  0  0  0  0  0  0
   -5.3412   -3.5477    0.7546 H   0  0  0  0  0  0  0  0  0  0  0  0
   -4.7034   -3.6271   -0.8989 H   0  0  0  0  0  0  0  0  0  0  0  0
   -2.8232   -0.7010    1.6037 H   0  0  0  0  0  0  0  0  0  0  0  0
   -1.0195   -3.2089    1.9067 H   0  0  0  0  0  0  0  0  0  0  0  0
    1.4495   -3.4970    1.7040 H   0  0  0  0  0  0  0  0  0  0  0  0
    2.7713   -1.8798    0.4103 H   0  0  0  0  0  0  0  0  0  0  0  0
    5.8954    0.7122    1.4197 H   0  0  0  0  0  0  0  0  0  0  0  0
    7.9029    0.6329   -1.9671 H   0  0  0  0  0  0  0  0  0  0  0  0
   11.7263    0.7846   -1.2377 H   0  0  0  0  0  0  0  0  0  0  0  0
   10.6266    1.6073   -2.4439 H   0  0  0  0  0  0  0  0  0  0  0  0
   10.6434   -0.1722   -2.2847 H   0  0  0  0  0  0  0  0  0  0  0  0
    8.8915    1.0114    4.5412 H   0  0  0  0  0  0  0  0  0  0  0  0
   10.0386    0.2010    3.4364 H   0  0  0  0  0  0  0  0  0  0  0  0
    9.9481    1.9859    3.3990 H   0  0  0  0  0  0  0  0  0  0  0  0
    4.9121    0.7087   -3.9383 H   0  0  0  0  0  0  0  0  0  0  0  0
    0.5313    1.9986   -1.8442 H   0  0  0  0  0  0  0  0  0  0  0  0
   -1.6395    0.9397   -0.7763 H   0  0  0  0  0  0  0  0  0  0  0  0
   -6.9378   -2.0028    1.5474 H   0  0  0  0  0  0  0  0  0  0  0  0
   -7.2213   -1.0780    0.0616 H   0  0  0  0  0  0  0  0  0  0  0  0
   -7.1599    0.0277    2.9212 H   0  0  0  0  0  0  0  0  0  0  0  0
   -8.5310   -0.2108    1.8275 H   0  0  0  0  0  0  0  0  0  0  0  0
  1  2  1  0
  2  3  1  0
  3  4  1  0
  4  5  1  0
  5  6  1  0
  6  7  1  0
  7  8  1  0
  7  9  1  0
  9 10  2  0
  9 11  1  0
 11 12  1  0
 12 13  2  0
 13 14  1  0
 14 15  2  0
 15 16  1  0
 16 17  1  0
 17 18  1  0
 18 19  2  0
 19 20  1  0
 20 21  1  0
 21 22  1  0
 22 23  2  0
 23 24  1  0
 24 25  1  0
 24 26  1  0
 26 27  2  0
 27 28  1  0
 28 29  1  0
 20 30  2  0
 30 31  1  0
 31 32  2  0
 32 33  1  0
 17 34  2  0
 34 35  1  0
 35 36  1  0
  6 37  1  0
 37 38  1  0
 38  3  1  0
 36 12  1  0
 36 16  2  0
 32 18  1  0
 27 22  1  0
  1 39  1  0
  1 40  1  0
  1 41  1  0
  2 42  1  0
  2 43  1  0
  4 44  1  0
  4 45  1  0
  5 46  1  0
  5 47  1  0
  7 48  1  6
  8 49  1  0
  8 50  1  0
  8 51  1  0
 11 52  1  0
 13 53  1  0
 14 54  1  0
 15 55  1  0
 21 56  1  0
 23 57  1  0
 25 58  1  0
 25 59  1  0
 25 60  1  0
 29 61  1  0
 29 62  1  0
 29 63  1  0
 31 64  1  0
 34 65  1  0
 35 66  1  0
 37 67  1  0
 37 68  1  0
 38 69  1  0
 38 70  1  0
M  END
$$$$
