@<TRIPOS>MOLECULE
*****
 70 74 0 0 0
SMALL
GASTEIGER

@<TRIPOS>ATOM
      1 C          -8.8601    1.4184   -0.4603 C.3     1  UNL1       -0.0524
      2 C          -8.2890    2.0574    0.7758 C.3     1  UNL1       -0.0039
      3 N          -7.1785    1.3737    1.3536 N.3     1  UNL1       -0.3002
      4 C          -6.0441    1.4672    0.4627 C.3     1  UNL1        0.0117
      5 C          -4.9317    0.5241    0.8968 C.3     1  UNL1        0.0124
      6 N          -5.3380   -0.8373    0.8543 N.3     1  UNL1       -0.2893
      7 C          -4.8013   -1.6348   -0.1904 C.3     1  UNL1        0.0848
      8 C          -5.3784   -3.0417   -0.2092 C.3     1  UNL1       -0.0409
      9 C          -3.3439   -1.7428   -0.1507 C.2     1  UNL1        0.2342
     10 O          -2.7959   -2.3993   -1.1160 O.2     1  UNL1       -0.2738
     11 N          -2.4558   -1.2289    0.7975 N.am    1  UNL1       -0.2825
     12 C          -1.0436   -1.4113    0.7084 C.ar    1  UNL1        0.0576
     13 C          -0.4304   -2.4939    1.3342 C.ar    1  UNL1       -0.0384
     14 C           0.9349   -2.6734    1.2360 C.ar    1  UNL1       -0.0593
     15 C           1.6977   -1.7672    0.5078 C.ar    1  UNL1       -0.0518
     16 C           1.0590   -0.7034   -0.1017 C.ar    1  UNL1        0.0107
     17 C           1.5666    0.3372   -0.8882 C.ar    1  UNL1        0.0284
     18 C           2.9789    0.4765   -1.2139 C.ar    1  UNL1        0.1132
     19 N           3.9445    0.5296   -0.3008 N.ar    1  UNL1       -0.2113
     20 C           5.2649    0.6454   -0.5953 C.ar    1  UNL1        0.2203
     21 N           6.2431    0.7096    0.4301 N.pl3   1  UNL1       -0.2782
     22 C           7.6328    0.7691    0.2159 C.ar    1  UNL1        0.1152
     23 C           8.3314    0.7200   -0.9631 C.ar    1  UNL1        0.0503
     24 N           9.6660    0.7952   -0.7122 N.ar    1  UNL1       -0.2692
     25 C          10.7216    0.7718   -1.7012 C.3     1  UNL1        0.0304
     26 N           9.8116    0.8903    0.6049 N.ar    1  UNL1       -0.1317
     27 C           8.6127    0.8786    1.2017 C.ar    1  UNL1        0.2552
     28 O           8.3364    0.9576    2.5397 O.3     1  UNL1       -0.4774
     29 C           9.3399    1.0684    3.5363 C.3     1  UNL1        0.0805
     30 N           5.5651    0.7067   -1.9059 N.ar    1  UNL1       -0.2198
     31 C           4.6495    0.6599   -2.8867 C.ar    1  UNL1        0.0685
     32 C           3.3146    0.5420   -2.5602 C.ar    1  UNL1        0.1674
     33 F           2.3563    0.4926   -3.5280 F       1  UNL1       -0.2016
     34 C           0.4825    1.1004   -1.2287 C.ar    1  UNL1        0.0121
     35 N          -0.6424    0.6116   -0.7162 N.ar    1  UNL1       -0.3586
     36 C          -0.2947   -0.4980   -0.0224 C.ar    1  UNL1        0.0686
     37 C          -6.7448   -1.0376    1.0872 C.3     1  UNL1        0.0124
     38 C          -7.4337    0.0564    1.8263 C.3     1  UNL1        0.0117
     39 H          -8.2032    1.5104   -1.3526 H       1  UNL1        0.0242
     40 H          -9.7810    1.9981   -0.7249 H       1  UNL1        0.0242
     41 H          -9.2080    0.3789   -0.3013 H       1  UNL1        0.0242
     42 H          -9.1457    2.1451    1.5005 H       1  UNL1        0.0424
     43 H          -8.0234    3.1054    0.5241 H       1  UNL1        0.0424
     44 H          -5.6362    2.4938    0.5491 H       1  UNL1        0.0439
     45 H          -6.3259    1.3091   -0.5900 H       1  UNL1        0.0439
     46 H          -4.5737    0.8687    1.8873 H       1  UNL1        0.0439
     47 H          -4.1124    0.6856    0.1682 H       1  UNL1        0.0439
     48 H          -5.0754   -1.1735   -1.1724 H       1  UNL1        0.0556
     49 H          -6.3795   -3.0961   -0.6544 H       1  UNL1        0.0249
     50 H          -5.3412   -3.5477    0.7546 H       1  UNL1        0.0249
     51 H          -4.7034   -3.6271   -0.8989 H       1  UNL1        0.0249
     52 H          -2.8232   -0.7010    1.6037 H       1  UNL1        0.1549
     53 H          -1.0195   -3.2089    1.9067 H       1  UNL1        0.0637
     54 H           1.4495   -3.4970    1.7040 H       1  UNL1        0.0618
     55 H           2.7713   -1.8798    0.4103 H       1  UNL1        0.0624
     56 H           5.8954    0.7122    1.4197 H       1  UNL1        0.1552
     57 H           7.9029    0.6329   -1.9671 H       1  UNL1        0.0846
     58 H          11.7263    0.7846   -1.2377 H       1  UNL1        0.0473
     59 H          10.6266    1.6073   -2.4439 H       1  UNL1        0.0473
     60 H          10.6434   -0.1722   -2.2847 H       1  UNL1        0.0473
     61 H           8.8915    1.0114    4.5412 H       1  UNL1        0.0660
     62 H          10.0386    0.2010    3.4364 H       1  UNL1        0.0660
     63 H           9.9481    1.9859    3.3990 H       1  UNL1        0.0660
     64 H           4.9121    0.7087   -3.9383 H       1  UNL1        0.0861
     65 H           0.5313    1.9986   -1.8442 H       1  UNL1        0.0814
     66 H          -1.6395    0.9397   -0.7763 H       1  UNL1        0.1654
     67 H          -6.9378   -2.0028    1.5474 H       1  UNL1        0.0439
     68 H          -7.2213   -1.0780    0.0616 H       1  UNL1        0.0439
     69 H          -7.1599    0.0277    2.9212 H       1  UNL1        0.0439
     70 H          -8.5310   -0.2108    1.8275 H       1  UNL1        0.0439
@<TRIPOS>BOND
     1     1     2    1
     2     2     3    1
     3     3     4    1
     4     4     5    1
     5     5     6    1
     6     6     7    1
     7     7     8    1
     8     7     9    1
     9     9    10    2
    10     9    11   am
    11    11    12    1
    12    12    13   ar
    13    13    14   ar
    14    14    15   ar
    15    15    16   ar
    16    16    17   ar
    17    17    18    1
    18    18    19   ar
    19    19    20   ar
    20    20    21    1
    21    21    22    1
    22    22    23   ar
    23    23    24   ar
    24    24    25    1
    25    24    26   ar
    26    26    27   ar
    27    27    28    1
    28    28    29    1
    29    20    30   ar
    30    30    31   ar
    31    31    32   ar
    32    32    33    1
    33    17    34   ar
    34    34    35   ar
    35    35    36   ar
    36     6    37    1
    37    37    38    1
    38    38     3    1
    39    36    12   ar
    40    36    16   ar
    41    32    18   ar
    42    27    22   ar
    43     1    39    1
    44     1    40    1
    45     1    41    1
    46     2    42    1
    47     2    43    1
    48     4    44    1
    49     4    45    1
    50     5    46    1
    51     5    47    1
    52     7    48    1
    53     8    49    1
    54     8    50    1
    55     8    51    1
    56    11    52    1
    57    13    53    1
    58    14    54    1
    59    15    55    1
    60    21    56    1
    61    23    57    1
    62    25    58    1
    63    25    59    1
    64    25    60    1
    65    29    61    1
    66    29    62    1
    67    29    63    1
    68    31    64    1
    69    34    65    1
    70    35    66    1
    71    37    67    1
    72    37    68    1
    73    38    69    1
    74    38    70    1
