@<TRIPOS>MOLECULE
*****
 67 72 0 0 0
SMALL
GASTEIGER

@<TRIPOS>ATOM
      1 C          -1.8369    3.9008    0.4174 C.3     1  UNL1       -0.0391
      2 C          -0.7561    2.8935    0.2980 C.ar    1  UNL1       -0.0426
      3 C           0.5402    3.3527    0.2394 C.ar    1  UNL1       -0.0565
      4 C           1.6116    2.4679    0.1374 C.ar    1  UNL1       -0.0402
      5 C           1.4377    1.1134    0.0904 C.ar    1  UNL1        0.0343
      6 N           2.4371    0.1250   -0.0110 N.am    1  UNL1       -0.2815
      7 C           3.8082    0.3448   -0.0821 C.2     1  UNL1        0.2484
      8 O           4.2429    1.5520   -0.0554 O.2     1  UNL1       -0.2699
      9 C           4.8014   -0.7381   -0.1873 C.ar    1  UNL1        0.0417
     10 C           4.3825   -2.0321   -0.2236 C.ar    1  UNL1       -0.0313
     11 C           5.3733   -3.0188   -0.3236 C.ar    1  UNL1        0.0304
     12 N           6.6728   -2.6963   -0.3805 N.ar    1  UNL1       -0.2403
     13 C           7.1221   -1.4174   -0.3465 C.ar    1  UNL1        0.1219
     14 N           8.5145   -1.1437   -0.4108 N.pl3   1  UNL1       -0.3152
     15 C           9.5594   -2.1249   -0.5186 C.3     1  UNL1        0.0135
     16 C          10.8327   -1.3825   -0.2000 C.3     1  UNL1       -0.0358
     17 C          10.3911   -0.0499    0.3607 C.3     1  UNL1       -0.0358
     18 C           9.0860    0.1848   -0.3762 C.3     1  UNL1        0.0135
     19 C           6.1533   -0.4532   -0.2488 C.ar    1  UNL1       -0.0096
     20 C           0.1100    0.6800    0.1518 C.ar    1  UNL1       -0.0325
     21 C          -0.9627    1.5528    0.2532 C.ar    1  UNL1       -0.0131
     22 C          -2.3425    1.0316    0.3029 C.ar    1  UNL1       -0.0140
     23 C          -3.3275    1.5310   -0.5137 C.ar    1  UNL1       -0.0532
     24 C          -4.6118    1.0444   -0.4558 C.ar    1  UNL1       -0.0486
     25 C          -4.9683    0.0376    0.4202 C.ar    1  UNL1        0.0446
     26 C          -6.1360   -0.6369    0.7016 C.ar    1  UNL1        0.0945
     27 C          -7.4502   -0.4195    0.0549 C.3     1  UNL1        0.0075
     28 C          -7.6325   -1.2956   -1.1622 C.3     1  UNL1       -0.0320
     29 C          -8.8998   -0.8364   -1.8533 C.3     1  UNL1       -0.0035
     30 N          -9.8570   -0.2774   -0.9173 N.3     1  UNL1       -0.3159
     31 C          -9.8661   -0.9529    0.3526 C.3     1  UNL1       -0.0035
     32 C          -8.5502   -0.7415    1.0451 C.3     1  UNL1       -0.0320
     33 N          -5.7977   -1.5030    1.6670 N.ar    1  UNL1       -0.0818
     34 O          -4.5429   -1.3896    1.9676 O.2     1  UNL1       -0.3544
     35 C          -3.9580   -0.4434    1.2266 C.ar    1  UNL1        0.1681
     36 C          -2.6657    0.0302    1.1842 C.ar    1  UNL1       -0.0083
     37 H          -1.5105    4.7452    1.0781 H       1  UNL1        0.0278
     38 H          -2.0050    4.3413   -0.5851 H       1  UNL1        0.0278
     39 H          -2.7812    3.5295    0.8042 H       1  UNL1        0.0278
     40 H           0.7333    4.4099    0.2726 H       1  UNL1        0.0621
     41 H           2.5943    2.9102    0.0969 H       1  UNL1        0.0636
     42 H           2.1482   -0.9096   -0.0385 H       1  UNL1        0.1551
     43 H           3.3725   -2.3773   -0.1837 H       1  UNL1        0.0640
     44 H           5.0692   -4.0436   -0.3539 H       1  UNL1        0.0830
     45 H           9.4552   -2.9780    0.1610 H       1  UNL1        0.0464
     46 H           9.6149   -2.4268   -1.5864 H       1  UNL1        0.0464
     47 H          11.4434   -1.9115    0.5624 H       1  UNL1        0.0281
     48 H          11.4292   -1.1527   -1.1239 H       1  UNL1        0.0281
     49 H          10.1198   -0.1636    1.4363 H       1  UNL1        0.0281
     50 H          11.0827    0.7682    0.1661 H       1  UNL1        0.0281
     51 H           8.4067    0.8443    0.1864 H       1  UNL1        0.0464
     52 H           9.2552    0.5898   -1.4007 H       1  UNL1        0.0464
     53 H           6.4299    0.5769   -0.2170 H       1  UNL1        0.0659
     54 H          -0.0935   -0.3863    0.1188 H       1  UNL1        0.0642
     55 H          -3.0954    2.3276   -1.2315 H       1  UNL1        0.0624
     56 H          -5.4127    1.4252   -1.0945 H       1  UNL1        0.0625
     57 H          -7.5780    0.6203   -0.2487 H       1  UNL1        0.0366
     58 H          -7.7433   -2.3453   -0.8169 H       1  UNL1        0.0284
     59 H          -6.7971   -1.1606   -1.8734 H       1  UNL1        0.0284
     60 H          -9.3427   -1.6584   -2.4530 H       1  UNL1        0.0424
     61 H          -8.6180   -0.0128   -2.5415 H       1  UNL1        0.0424
     62 H          -9.6558    0.7423   -0.7283 H       1  UNL1        0.1219
     63 H         -10.0220   -2.0321    0.1629 H       1  UNL1        0.0424
     64 H         -10.6558   -0.5102    0.9673 H       1  UNL1        0.0424
     65 H          -8.2849   -1.6964    1.5611 H       1  UNL1        0.0284
     66 H          -8.5639    0.0364    1.8199 H       1  UNL1        0.0284
     67 H          -1.9091   -0.3915    1.8487 H       1  UNL1        0.0661
@<TRIPOS>BOND
     1     1     2    1
     2     2     3   ar
     3     3     4   ar
     4     4     5   ar
     5     5     6    1
     6     6     7   am
     7     7     8    2
     8     7     9    1
     9     9    10   ar
    10    10    11   ar
    11    11    12   ar
    12    12    13   ar
    13    13    14    1
    14    14    15    1
    15    15    16    1
    16    16    17    1
    17    17    18    1
    18    13    19   ar
    19     5    20   ar
    20    20    21   ar
    21    21    22    1
    22    22    23   ar
    23    23    24   ar
    24    24    25   ar
    25    25    26   ar
    26    26    27    1
    27    27    28    1
    28    28    29    1
    29    29    30    1
    30    30    31    1
    31    31    32    1
    32    26    33   ar
    33    33    34   ar
    34    34    35   ar
    35    35    36   ar
    36    21     2   ar
    37    36    22   ar
    38    19     9   ar
    39    35    25   ar
    40    18    14    1
    41    32    27    1
    42     1    37    1
    43     1    38    1
    44     1    39    1
    45     3    40    1
    46     4    41    1
    47     6    42    1
    48    10    43    1
    49    11    44    1
    50    15    45    1
    51    15    46    1
    52    16    47    1
    53    16    48    1
    54    17    49    1
    55    17    50    1
    56    18    51    1
    57    18    52    1
    58    19    53    1
    59    20    54    1
    60    23    55    1
    61    24    56    1
    62    27    57    1
    63    28    58    1
    64    28    59    1
    65    29    60    1
    66    29    61    1
    67    30    62    1
    68    31    63    1
    69    31    64    1
    70    32    65    1
    71    32    66    1
    72    36    67    1
