@<TRIPOS>MOLECULE
*****
 52 56 0 0 0
SMALL
GASTEIGER

@<TRIPOS>ATOM
      1 C          -3.3709    0.0458    2.9660 C.3     1  UNL1       -0.0275
      2 C          -3.2264    0.1983    1.4444 C.3     1  UNL1        0.1021
      3 O          -1.9583    0.2069    1.0250 O.3     1  UNL1       -0.4880
      4 C          -0.9333    0.7899    0.4574 C.ar    1  UNL1        0.1321
      5 C           0.3054    0.0959    0.3250 C.ar    1  UNL1       -0.0114
      6 C           1.3936    0.6686   -0.2594 C.ar    1  UNL1       -0.0123
      7 C           2.6390   -0.0982   -0.3654 C.ar    1  UNL1       -0.0170
      8 C           2.9108   -1.0094    0.6325 C.ar    1  UNL1       -0.0520
      9 C           4.0742   -1.7676    0.5914 C.ar    1  UNL1       -0.0355
     10 C           4.9691   -1.6263   -0.4346 C.ar    1  UNL1        0.0686
     11 C           4.7047   -0.7102   -1.4462 C.ar    1  UNL1        0.0203
     12 C           5.7525   -0.7740   -2.3324 C.ar    1  UNL1        0.0571
     13 N           6.6067   -1.7026   -1.8520 N.ar    1  UNL1       -0.1788
     14 N           6.1486   -2.2153   -0.7225 N.ar    1  UNL1       -0.2668
     15 C           6.7828   -3.2374    0.0912 C.3     1  UNL1        0.0309
     16 C           3.5383    0.0447   -1.3977 C.ar    1  UNL1       -0.0433
     17 C           1.2933    1.9563   -0.7361 C.ar    1  UNL1       -0.0260
     18 C           0.1335    2.6912   -0.6457 C.ar    1  UNL1        0.0968
     19 N          -0.2127    3.9454   -1.0282 N.ar    1  UNL1       -0.1713
     20 N          -1.4570    4.1918   -0.7165 N.ar    1  UNL1       -0.2732
     21 C          -2.2361    5.4173   -0.9453 C.3     1  UNL1        0.0302
     22 C          -1.9367    3.0713   -0.1154 C.ar    1  UNL1        0.0364
     23 C          -0.9636    2.0972   -0.0500 C.ar    1  UNL1        0.0614
     24 C          -4.1088   -0.8413    0.7531 C.3     1  UNL1        0.0195
     25 C          -3.9962   -0.7266   -0.7503 C.3     1  UNL1        0.0182
     26 N          -4.5339   -2.0306   -1.1646 N.am    1  UNL1       -0.3149
     27 C          -4.3368   -2.9679   -0.1129 C.2     1  UNL1        0.2135
     28 O          -4.7012   -4.1662   -0.1963 O.2     1  UNL1       -0.2758
     29 C          -3.6601   -2.2398    0.9928 C.3     1  UNL1        0.0315
     30 H          -4.3000    0.5299    3.3318 H       1  UNL1        0.0265
     31 H          -2.5079    0.5436    3.4604 H       1  UNL1        0.0265
     32 H          -3.3933   -0.9953    3.2803 H       1  UNL1        0.0265
     33 H          -3.7543    1.1508    1.2342 H       1  UNL1        0.0733
     34 H           0.3225   -0.9100    0.7176 H       1  UNL1        0.0660
     35 H           2.2113   -1.1442    1.4680 H       1  UNL1        0.0624
     36 H           4.3073   -2.4955    1.3737 H       1  UNL1        0.0639
     37 H           5.8861   -0.2079   -3.2336 H       1  UNL1        0.0854
     38 H           6.0004   -3.7638    0.7017 H       1  UNL1        0.0473
     39 H           7.2180   -4.0290   -0.5692 H       1  UNL1        0.0473
     40 H           7.5451   -2.7898    0.7526 H       1  UNL1        0.0473
     41 H           3.3216    0.7567   -2.1737 H       1  UNL1        0.0631
     42 H           2.1567    2.3997   -1.1953 H       1  UNL1        0.0646
     43 H          -2.6439    5.4314   -1.9675 H       1  UNL1        0.0473
     44 H          -1.6292    6.3094   -0.7028 H       1  UNL1        0.0473
     45 H          -3.1124    5.4369   -0.2562 H       1  UNL1        0.0473
     46 H          -2.9518    2.9943    0.2491 H       1  UNL1        0.0833
     47 H          -5.1715   -0.7480    1.0430 H       1  UNL1        0.0356
     48 H          -2.9453   -0.6786   -1.0686 H       1  UNL1        0.0466
     49 H          -4.6157    0.1016   -1.1474 H       1  UNL1        0.0466
     50 H          -4.9745   -2.1556   -2.1034 H       1  UNL1        0.1487
     51 H          -2.5656   -2.3576    0.8597 H       1  UNL1        0.0363
     52 H          -4.0241   -2.6864    1.9384 H       1  UNL1        0.0363
@<TRIPOS>BOND
     1     1     2    1
     2     2     3    1
     3     3     4    1
     4     4     5   ar
     5     5     6   ar
     6     6     7    1
     7     7     8   ar
     8     8     9   ar
     9     9    10   ar
    10    10    11   ar
    11    11    12   ar
    12    12    13   ar
    13    13    14   ar
    14    14    15    1
    15    11    16   ar
    16     6    17   ar
    17    17    18   ar
    18    18    19   ar
    19    19    20   ar
    20    20    21    1
    21    20    22   ar
    22    22    23   ar
    23     2    24    1
    24    24    25    1
    25    25    26    1
    26    26    27   am
    27    27    28    2
    28    27    29    1
    29    23     4   ar
    30    29    24    1
    31    16     7   ar
    32    23    18   ar
    33    14    10   ar
    34     1    30    1
    35     1    31    1
    36     1    32    1
    37     2    33    1
    38     5    34    1
    39     8    35    1
    40     9    36    1
    41    12    37    1
    42    15    38    1
    43    15    39    1
    44    15    40    1
    45    16    41    1
    46    17    42    1
    47    21    43    1
    48    21    44    1
    49    21    45    1
    50    22    46    1
    51    24    47    1
    52    25    48    1
    53    25    49    1
    54    26    50    1
    55    29    51    1
    56    29    52    1
