
     RDKit          3D

 52 56  0  0  0  0  0  0  0  0999 V2000
   -3.3709    0.0458    2.9660 C   0  0  0  0  0  0  0  0  0  0  0  0
   -3.2264    0.1983    1.4444 C   0  0  1  0  0  0  0  0  0  0  0  0
   -1.9583    0.2069    1.0250 O   0  0  0  0  0  0  0  0  0  0  0  0
   -0.9333    0.7899    0.4574 C   0  0  0  0  0  0  0  0  0  0  0  0
    0.3054    0.0959    0.3250 C   0  0  0  0  0  0  0  0  0  0  0  0
    1.3936    0.6686   -0.2594 C   0  0  0  0  0  0  0  0  0  0  0  0
    2.6390   -0.0982   -0.3654 C   0  0  0  0  0  0  0  0  0  0  0  0
    2.9108   -1.0094    0.6325 C   0  0  0  0  0  0  0  0  0  0  0  0
    4.0742   -1.7676    0.5914 C   0  0  0  0  0  0  0  0  0  0  0  0
    4.9691   -1.6263   -0.4346 C   0  0  0  0  0  0  0  0  0  0  0  0
    4.7047   -0.7102   -1.4462 C   0  0  0  0  0  0  0  0  0  0  0  0
    5.7525   -0.7740   -2.3324 C   0  0  0  0  0  0  0  0  0  0  0  0
    6.6067   -1.7026   -1.8520 N   0  0  0  0  0  0  0  0  0  0  0  0
    6.1486   -2.2153   -0.7225 N   0  0  0  0  0  0  0  0  0  0  0  0
    6.7828   -3.2374    0.0912 C   0  0  0  0  0  0  0  0  0  0  0  0
    3.5383    0.0447   -1.3977 C   0  0  0  0  0  0  0  0  0  0  0  0
    1.2933    1.9563   -0.7361 C   0  0  0  0  0  0  0  0  0  0  0  0
    0.1335    2.6912   -0.6457 C   0  0  0  0  0  0  0  0  0  0  0  0
   -0.2127    3.9454   -1.0282 N   0  0  0  0  0  0  0  0  0  0  0  0
   -1.4570    4.1918   -0.7165 N   0  0  0  0  0  0  0  0  0  0  0  0
   -2.2361    5.4173   -0.9453 C   0  0  0  0  0  0  0  0  0  0  0  0
   -1.9367    3.0713   -0.1154 C   0  0  0  0  0  0  0  0  0  0  0  0
   -0.9636    2.0972   -0.0500 C   0  0  0  0  0  0  0  0  0  0  0  0
   -4.1088   -0.8413    0.7531 C   0  0  1  0  0  0  0  0  0  0  0  0
   -3.9962   -0.7266   -0.7503 C   0  0  0  0  0  0  0  0  0  0  0  0
   -4.5339   -2.0306   -1.1646 N   0  0  0  0  0  0  0  0  0  0  0  0
   -4.3368   -2.9679   -0.1129 C   0  0  0  0  0  0  0  0  0  0  0  0
   -4.7012   -4.1662   -0.1963 O   0  0  0  0  0  0  0  0  0  0  0  0
   -3.6601   -2.2398    0.9928 C   0  0  0  0  0  0  0  0  0  0  0  0
   -4.3000    0.5299    3.3318 H   0  0  0  0  0  0  0  0  0  0  0  0
   -2.5079    0.5436    3.4604 H   0  0  0  0  0  0  0  0  0  0  0  0
   -3.3933   -0.9953    3.2803 H   0  0  0  0  0  0  0  0  0  0  0  0
   -3.7543    1.1508    1.2342 H   0  0  0  0  0  0  0  0  0  0  0  0
    0.3225   -0.9100    0.7176 H   0  0  0  0  0  0  0  0  0  0  0  0
    2.2113   -1.1442    1.4680 H   0  0  0  0  0  0  0  0  0  0  0  0
    4.3073   -2.4955    1.3737 H   0  0  0  0  0  0  0  0  0  0  0  0
    5.8861   -0.2079   -3.2336 H   0  0  0  0  0  0  0  0  0  0  0  0
    6.0004   -3.7638    0.7017 H   0  0  0  0  0  0  0  0  0  0  0  0
    7.2180   -4.0290   -0.5692 H   0  0  0  0  0  0  0  0  0  0  0  0
    7.5451   -2.7898    0.7526 H   0  0  0  0  0  0  0  0  0  0  0  0
    3.3216    0.7567   -2.1737 H   0  0  0  0  0  0  0  0  0  0  0  0
    2.1567    2.3997   -1.1953 H   0  0  0  0  0  0  0  0  0  0  0  0
   -2.6439    5.4314   -1.9675 H   0  0  0  0  0  0  0  0  0  0  0  0
   -1.6292    6.3094   -0.7028 H   0  0  0  0  0  0  0  0  0  0  0  0
   -3.1124    5.4369   -0.2562 H   0  0  0  0  0  0  0  0  0  0  0  0
   -2.9518    2.9943    0.2491 H   0  0  0  0  0  0  0  0  0  0  0  0
   -5.1715   -0.7480    1.0430 H   0  0  0  0  0  0  0  0  0  0  0  0
   -2.9453   -0.6786   -1.0686 H   0  0  0  0  0  0  0  0  0  0  0  0
   -4.6157    0.1016   -1.1474 H   0  0  0  0  0  0  0  0  0  0  0  0
   -4.9745   -2.1556   -2.1034 H   0  0  0  0  0  0  0  0  0  0  0  0
   -2.5656   -2.3576    0.8597 H   0  0  0  0  0  0  0  0  0  0  0  0
   -4.0241   -2.6864    1.9384 H   0  0  0  0  0  0  0  0  0  0  0  0
  1  2  1  0
  2  3  1  0
  3  4  1  0
  4  5  2  0
  5  6  1  0
  6  7  1  0
  7  8  2  0
  8  9  1  0
  9 10  2  0
 10 11  1  0
 11 12  1  0
 12 13  2  0
 13 14  1  0
 14 15  1  0
 11 16  2  0
  6 17  2  0
 17 18  1  0
 18 19  2  0
 19 20  1  0
 20 21  1  0
 20 22  1  0
 22 23  2  0
  2 24  1  0
 24 25  1  0
 25 26  1  0
 26 27  1  0
 27 28  2  0
 27 29  1  0
 23  4  1  0
 29 24  1  0
 16  7  1  0
 23 18  1  0
 14 10  1  0
  1 30  1  0
  1 31  1  0
  1 32  1  0
  2 33  1  6
  5 34  1  0
  8 35  1  0
  9 36  1  0
 12 37  1  0
 15 38  1  0
 15 39  1  0
 15 40  1  0
 16 41  1  0
 17 42  1  0
 21 43  1  0
 21 44  1  0
 21 45  1  0
 22 46  1  0
 24 47  1  6
 25 48  1  0
 25 49  1  0
 26 50  1  0
 29 51  1  0
 29 52  1  0
M  END
$$$$
