
     RDKit          3D

 33 35  0  0  0  0  0  0  0  0999 V2000
    4.2557    1.7336    0.1431 C   0  0  0  0  0  0  0  0  0  0  0  0
    4.0223    0.5769   -0.6939 N   0  0  0  0  0  0  0  0  0  0  0  0
    4.8935   -0.3637   -0.9863 N   0  0  0  0  0  0  0  0  0  0  0  0
    4.3040   -1.2520   -1.7771 N   0  0  0  0  0  0  0  0  0  0  0  0
    3.0575   -0.8662   -1.9813 N   0  0  0  0  0  0  0  0  0  0  0  0
    2.8525    0.2733   -1.3173 C   0  0  0  0  0  0  0  0  0  0  0  0
    1.3892    1.2521   -1.2516 S   0  0  0  0  0  0  0  0  0  0  0  0
    0.2941    0.9075    0.1107 C   0  0  0  0  0  0  0  0  0  0  0  0
   -0.3633   -0.4576    0.0397 C   0  0  2  0  0  0  0  0  0  0  0  0
    0.6013   -1.5719    0.0496 C   0  0  0  0  0  0  0  0  0  0  0  0
   -1.4369   -0.5318   -1.4638 S   0  0  0  0  0  0  0  0  0  0  0  0
   -3.0093   -0.1536   -0.6437 C   0  0  2  0  0  0  0  0  0  0  0  0
   -3.5926    1.2081   -0.9645 C   0  0  2  0  0  0  0  0  0  0  0  0
   -2.5110    2.3667   -2.0168 Br  0  0  0  0  0  0  0  0  0  0  0  0
   -3.4755    1.3709    0.5212 C   0  0  0  0  0  0  0  0  0  0  0  0
   -4.0945    2.1865    1.2786 O   0  0  0  0  0  0  0  0  0  0  0  0
   -2.5100    0.3466    0.6146 N   0  0  0  0  0  0  0  0  0  0  0  0
   -1.4258   -0.4673    1.1082 C   0  0  1  0  0  0  0  0  0  0  0  0
   -1.9721   -1.7613    1.4863 C   0  0  0  0  0  0  0  0  0  0  0  0
   -1.2546   -2.6087    2.1282 O   0  0  0  0  0  0  0  0  0  0  0  0
   -3.2584   -2.2159    1.2184 O   0  0  0  0  0  0  0  0  0  0  0  0
    3.7447    1.5644    1.1150 H   0  0  0  0  0  0  0  0  0  0  0  0
    5.3365    1.8783    0.2967 H   0  0  0  0  0  0  0  0  0  0  0  0
    3.8582    2.6065   -0.3996 H   0  0  0  0  0  0  0  0  0  0  0  0
   -0.5138    1.6379    0.2345 H   0  0  0  0  0  0  0  0  0  0  0  0
    0.9377    0.8640    1.0411 H   0  0  0  0  0  0  0  0  0  0  0  0
    1.6122   -1.1502    0.3455 H   0  0  0  0  0  0  0  0  0  0  0  0
    0.7161   -1.9404   -1.0102 H   0  0  0  0  0  0  0  0  0  0  0  0
    0.4251   -2.4039    0.7371 H   0  0  0  0  0  0  0  0  0  0  0  0
   -3.7330   -0.9730   -0.6285 H   0  0  0  0  0  0  0  0  0  0  0  0
   -4.6317    1.1178   -1.2795 H   0  0  0  0  0  0  0  0  0  0  0  0
   -1.0285    0.0145    2.0474 H   0  0  0  0  0  0  0  0  0  0  0  0
   -3.4896   -3.1885    1.2970 H   0  0  0  0  0  0  0  0  0  0  0  0
  1  2  1  0
  2  3  1  0
  3  4  2  0
  4  5  1  0
  5  6  2  0
  6  7  1  0
  7  8  1  0
  9  8  1  6
  9 10  1  0
  9 11  1  0
 11 12  1  0
 12 13  1  0
 13 14  1  0
 13 15  1  0
 15 16  2  0
 15 17  1  0
 17 18  1  0
 18 19  1  0
 19 20  2  0
 19 21  1  0
  6  2  1  0
 18  9  1  0
 17 12  1  0
  1 22  1  0
  1 23  1  0
  1 24  1  0
  8 25  1  0
  8 26  1  0
 10 27  1  0
 10 28  1  0
 10 29  1  0
 12 30  1  1
 13 31  1  6
 18 32  1  1
 21 33  1  0
M  END
$$$$
