@<TRIPOS>MOLECULE
*****
 33 35 0 0 0
SMALL
GASTEIGER

@<TRIPOS>ATOM
      1 C           4.2557    1.7336    0.1431 C.3     1  UNL1        0.0346
      2 N           4.0223    0.5769   -0.6939 N.ar    1  UNL1       -0.2233
      3 N           4.8935   -0.3637   -0.9863 N.ar    1  UNL1       -0.0435
      4 N           4.3040   -1.2520   -1.7771 N.ar    1  UNL1       -0.0222
      5 N           3.0575   -0.8662   -1.9813 N.ar    1  UNL1       -0.1015
      6 C           2.8525    0.2733   -1.3173 C.ar    1  UNL1        0.2091
      7 S           1.3892    1.2521   -1.2516 S.3     1  UNL1       -0.0832
      8 C           0.2941    0.9075    0.1107 C.3     1  UNL1        0.0179
      9 C          -0.3633   -0.4576    0.0397 C.3     1  UNL1        0.0538
     10 C           0.6013   -1.5719    0.0496 C.3     1  UNL1       -0.0473
     11 S          -1.4369   -0.5318   -1.4638 S.3     1  UNL1       -0.1270
     12 C          -3.0093   -0.1536   -0.6437 C.3     1  UNL1        0.0945
     13 C          -3.5926    1.2081   -0.9645 C.3     1  UNL1        0.1188
     14 BR         -2.5110    2.3667   -2.0168 Br      1  UNL1       -0.0754
     15 C          -3.4755    1.3709    0.5212 C.2     1  UNL1        0.2334
     16 O          -4.0945    2.1865    1.2786 O.2     1  UNL1       -0.2742
     17 N          -2.5100    0.3466    0.6146 N.am    1  UNL1       -0.2721
     18 C          -1.4258   -0.4673    1.1082 C.3     1  UNL1        0.1389
     19 C          -1.9721   -1.7613    1.4863 C.2     1  UNL1        0.3269
     20 O          -1.2546   -2.6087    2.1282 O.2     1  UNL1       -0.2489
     21 O          -3.2584   -2.2159    1.2184 O.3     1  UNL1       -0.4793
     22 H           3.7447    1.5644    1.1150 H       1  UNL1        0.0474
     23 H           5.3365    1.8783    0.2967 H       1  UNL1        0.0474
     24 H           3.8582    2.6065   -0.3996 H       1  UNL1        0.0474
     25 H          -0.5138    1.6379    0.2345 H       1  UNL1        0.0395
     26 H           0.9377    0.8640    1.0411 H       1  UNL1        0.0395
     27 H           1.6122   -1.1502    0.3455 H       1  UNL1        0.0244
     28 H           0.7161   -1.9404   -1.0102 H       1  UNL1        0.0244
     29 H           0.4251   -2.4039    0.7371 H       1  UNL1        0.0244
     30 H          -3.7330   -0.9730   -0.6285 H       1  UNL1        0.0633
     31 H          -4.6317    1.1178   -1.2795 H       1  UNL1        0.0540
     32 H          -1.0285    0.0145    2.0474 H       1  UNL1        0.0631
     33 H          -3.4896   -3.1885    1.2970 H       1  UNL1        0.2951
@<TRIPOS>BOND
     1     1     2    1
     2     2     3   ar
     3     3     4   ar
     4     4     5   ar
     5     5     6   ar
     6     6     7    1
     7     7     8    1
     8     9     8    1
     9     9    10    1
    10     9    11    1
    11    11    12    1
    12    12    13    1
    13    13    14    1
    14    13    15    1
    15    15    16    2
    16    15    17   am
    17    17    18    1
    18    18    19    1
    19    19    20    2
    20    19    21    1
    21     6     2   ar
    22    18     9    1
    23    17    12    1
    24     1    22    1
    25     1    23    1
    26     1    24    1
    27     8    25    1
    28     8    26    1
    29    10    27    1
    30    10    28    1
    31    10    29    1
    32    12    30    1
    33    13    31    1
    34    18    32    1
    35    21    33    1
