
     RDKit          3D

 57 60  0  0  0  0  0  0  0  0999 V2000
   -5.2720    2.5043   -2.1519 C   0  0  0  0  0  0  0  0  0  0  0  0
   -5.6232    1.6862   -1.0789 O   0  0  0  0  0  0  0  0  0  0  0  0
   -4.9164    0.5613   -0.6904 C   0  0  0  0  0  0  0  0  0  0  0  0
   -3.7985    0.2263   -1.4075 C   0  0  0  0  0  0  0  0  0  0  0  0
   -3.0408   -0.8850   -1.0783 C   0  0  0  0  0  0  0  0  0  0  0  0
   -3.4203   -1.6663   -0.0086 C   0  0  0  0  0  0  0  0  0  0  0  0
   -4.5585   -1.3330    0.7279 C   0  0  0  0  0  0  0  0  0  0  0  0
   -5.2993   -0.2168    0.3781 C   0  0  0  0  0  0  0  0  0  0  0  0
   -6.4344    0.1495    1.0816 O   0  0  0  0  0  0  0  0  0  0  0  0
   -6.8743   -0.6222    2.1967 C   0  0  0  0  0  0  0  0  0  0  0  0
   -2.4573   -2.7691    0.1415 C   0  0  0  0  0  0  0  0  0  0  0  0
   -2.6496   -3.8896    0.6083 O   0  0  0  0  0  0  0  0  0  0  0  0
   -1.1885   -2.1483   -0.4288 C   0  0  0  0  0  0  0  0  0  0  0  0
   -0.7496   -1.1952    0.6138 C   0  0  0  0  0  0  0  0  0  0  0  0
    0.4804   -0.4182    0.4006 C   0  0  0  0  0  0  0  0  0  0  0  0
    0.5408    0.4868   -0.7763 C   0  0  0  0  0  0  0  0  0  0  0  0
    1.5599    1.5726   -0.4299 C   0  0  0  0  0  0  0  0  0  0  0  0
    2.7533    0.9900    0.1518 N   0  0  0  0  0  0  0  0  0  0  0  0
    3.8824    1.6693   -0.4690 C   0  0  0  0  0  0  0  0  0  0  0  0
    5.1887    1.2086    0.0031 C   0  0  0  0  0  0  0  0  0  0  0  0
    5.8162    1.7742    1.0823 C   0  0  0  0  0  0  0  0  0  0  0  0
    7.0662    1.3227    1.5196 C   0  0  0  0  0  0  0  0  0  0  0  0
    7.6759    0.3013    0.8637 C   0  0  0  0  0  0  0  0  0  0  0  0
    7.0657   -0.2937   -0.2347 C   0  0  0  0  0  0  0  0  0  0  0  0
    5.8195    0.1761   -0.6494 C   0  0  0  0  0  0  0  0  0  0  0  0
    2.8851   -0.4187   -0.1368 C   0  0  0  0  0  0  0  0  0  0  0  0
    1.7452   -1.2512    0.3998 C   0  0  0  0  0  0  0  0  0  0  0  0
   -1.8191   -1.5126   -1.6497 C   0  0  0  0  0  0  0  0  0  0  0  0
   -5.7645    3.5001   -2.1204 H   0  0  0  0  0  0  0  0  0  0  0  0
   -5.5058    1.9734   -3.1193 H   0  0  0  0  0  0  0  0  0  0  0  0
   -4.1661    2.7248   -2.2015 H   0  0  0  0  0  0  0  0  0  0  0  0
   -3.4721    0.8106   -2.2461 H   0  0  0  0  0  0  0  0  0  0  0  0
   -4.8431   -1.9484    1.5533 H   0  0  0  0  0  0  0  0  0  0  0  0
   -7.0797   -1.6307    1.8102 H   0  0  0  0  0  0  0  0  0  0  0  0
   -7.7602   -0.1556    2.6398 H   0  0  0  0  0  0  0  0  0  0  0  0
   -6.0864   -0.6696    2.9872 H   0  0  0  0  0  0  0  0  0  0  0  0
   -0.4668   -2.9304   -0.6867 H   0  0  0  0  0  0  0  0  0  0  0  0
   -1.5844   -0.4738    0.7896 H   0  0  0  0  0  0  0  0  0  0  0  0
   -0.6373   -1.7434    1.5846 H   0  0  0  0  0  0  0  0  0  0  0  0
    0.5923    0.2472    1.3146 H   0  0  0  0  0  0  0  0  0  0  0  0
    0.9451    0.0048   -1.6904 H   0  0  0  0  0  0  0  0  0  0  0  0
   -0.4094    1.0077   -0.8969 H   0  0  0  0  0  0  0  0  0  0  0  0
    1.1251    2.2504    0.3339 H   0  0  0  0  0  0  0  0  0  0  0  0
    1.7507    2.1430   -1.3447 H   0  0  0  0  0  0  0  0  0  0  0  0
    3.7413    1.5409   -1.5655 H   0  0  0  0  0  0  0  0  0  0  0  0
    3.7331    2.7758   -0.3008 H   0  0  0  0  0  0  0  0  0  0  0  0
    5.3318    2.5787    1.5967 H   0  0  0  0  0  0  0  0  0  0  0  0
    7.5672    1.7669    2.3729 H   0  0  0  0  0  0  0  0  0  0  0  0
    8.6528   -0.0895    1.1642 H   0  0  0  0  0  0  0  0  0  0  0  0
    7.5766   -1.1078   -0.7392 H   0  0  0  0  0  0  0  0  0  0  0  0
    5.3772   -0.3170   -1.5130 H   0  0  0  0  0  0  0  0  0  0  0  0
    3.0153   -0.5948   -1.2054 H   0  0  0  0  0  0  0  0  0  0  0  0
    3.7989   -0.7693    0.3846 H   0  0  0  0  0  0  0  0  0  0  0  0
    1.6536   -2.1623   -0.2170 H   0  0  0  0  0  0  0  0  0  0  0  0
    1.9345   -1.5765    1.4347 H   0  0  0  0  0  0  0  0  0  0  0  0
   -1.1914   -0.8190   -2.1946 H   0  0  0  0  0  0  0  0  0  0  0  0
   -2.2057   -2.3455   -2.2941 H   0  0  0  0  0  0  0  0  0  0  0  0
  1  2  1  0
  2  3  1  0
  3  4  2  0
  4  5  1  0
  5  6  2  0
  6  7  1  0
  7  8  2  0
  8  9  1  0
  9 10  1  0
  6 11  1  0
 11 12  2  0
 11 13  1  0
 13 14  1  0
 14 15  1  0
 15 16  1  0
 16 17  1  0
 17 18  1  0
 18 19  1  0
 19 20  1  0
 20 21  2  0
 21 22  1  0
 22 23  2  0
 23 24  1  0
 24 25  2  0
 18 26  1  0
 26 27  1  0
 13 28  1  0
  8  3  1  0
 27 15  1  0
 28  5  1  0
 25 20  1  0
  1 29  1  0
  1 30  1  0
  1 31  1  0
  4 32  1  0
  7 33  1  0
 10 34  1  0
 10 35  1  0
 10 36  1  0
 13 37  1  0
 14 38  1  0
 14 39  1  0
 15 40  1  0
 16 41  1  0
 16 42  1  0
 17 43  1  0
 17 44  1  0
 19 45  1  0
 19 46  1  0
 21 47  1  0
 22 48  1  0
 23 49  1  0
 24 50  1  0
 25 51  1  0
 26 52  1  0
 26 53  1  0
 27 54  1  0
 27 55  1  0
 28 56  1  0
 28 57  1  0
M  END
$$$$
