@<TRIPOS>MOLECULE
*****
 57 60 0 0 0
SMALL
GASTEIGER

@<TRIPOS>ATOM
      1 C          -5.2720    2.5043   -2.1519 C.3     1  UNL1        0.0790
      2 O          -5.6232    1.6862   -1.0789 O.3     1  UNL1       -0.4914
      3 C          -4.9164    0.5613   -0.6904 C.ar    1  UNL1        0.1618
      4 C          -3.7985    0.2263   -1.4075 C.ar    1  UNL1       -0.0124
      5 C          -3.0408   -0.8850   -1.0783 C.ar    1  UNL1       -0.0325
      6 C          -3.4203   -1.6663   -0.0086 C.ar    1  UNL1        0.0246
      7 C          -4.5585   -1.3330    0.7279 C.ar    1  UNL1       -0.0056
      8 C          -5.2993   -0.2168    0.3781 C.ar    1  UNL1        0.1622
      9 O          -6.4344    0.1495    1.0816 O.3     1  UNL1       -0.4914
     10 C          -6.8743   -0.6222    2.1967 C.3     1  UNL1        0.0790
     11 C          -2.4573   -2.7691    0.1415 C.2     1  UNL1        0.1669
     12 O          -2.6496   -3.8896    0.6083 O.2     1  UNL1       -0.2917
     13 C          -1.1885   -2.1483   -0.4288 C.3     1  UNL1        0.0264
     14 C          -0.7496   -1.1952    0.6138 C.3     1  UNL1       -0.0399
     15 C           0.4804   -0.4182    0.4006 C.3     1  UNL1       -0.0381
     16 C           0.5408    0.4868   -0.7763 C.3     1  UNL1       -0.0373
     17 C           1.5599    1.5726   -0.4299 C.3     1  UNL1       -0.0005
     18 N           2.7533    0.9900    0.1518 N.3     1  UNL1       -0.2981
     19 C           3.8824    1.6693   -0.4690 C.3     1  UNL1        0.0240
     20 C           5.1887    1.2086    0.0031 C.ar    1  UNL1       -0.0334
     21 C           5.8162    1.7742    1.0823 C.ar    1  UNL1       -0.0573
     22 C           7.0662    1.3227    1.5196 C.ar    1  UNL1       -0.0615
     23 C           7.6759    0.3013    0.8637 C.ar    1  UNL1       -0.0617
     24 C           7.0657   -0.2937   -0.2347 C.ar    1  UNL1       -0.0615
     25 C           5.8195    0.1761   -0.6494 C.ar    1  UNL1       -0.0573
     26 C           2.8851   -0.4187   -0.1368 C.3     1  UNL1       -0.0005
     27 C           1.7452   -1.2512    0.3998 C.3     1  UNL1       -0.0373
     28 C          -1.8191   -1.5126   -1.6497 C.3     1  UNL1       -0.0170
     29 H          -5.7645    3.5001   -2.1204 H       1  UNL1        0.0660
     30 H          -5.5058    1.9734   -3.1193 H       1  UNL1        0.0660
     31 H          -4.1661    2.7248   -2.2015 H       1  UNL1        0.0660
     32 H          -3.4721    0.8106   -2.2461 H       1  UNL1        0.0658
     33 H          -4.8431   -1.9484    1.5533 H       1  UNL1        0.0662
     34 H          -7.0797   -1.6307    1.8102 H       1  UNL1        0.0660
     35 H          -7.7602   -0.1556    2.6398 H       1  UNL1        0.0660
     36 H          -6.0864   -0.6696    2.9872 H       1  UNL1        0.0660
     37 H          -0.4668   -2.9304   -0.6867 H       1  UNL1        0.0384
     38 H          -1.5844   -0.4738    0.7896 H       1  UNL1        0.0275
     39 H          -0.6373   -1.7434    1.5846 H       1  UNL1        0.0275
     40 H           0.5923    0.2472    1.3146 H       1  UNL1        0.0302
     41 H           0.9451    0.0048   -1.6904 H       1  UNL1        0.0280
     42 H          -0.4094    1.0077   -0.8969 H       1  UNL1        0.0280
     43 H           1.1251    2.2504    0.3339 H       1  UNL1        0.0427
     44 H           1.7507    2.1430   -1.3447 H       1  UNL1        0.0427
     45 H           3.7413    1.5409   -1.5655 H       1  UNL1        0.0476
     46 H           3.7331    2.7758   -0.3008 H       1  UNL1        0.0476
     47 H           5.3318    2.5787    1.5967 H       1  UNL1        0.0621
     48 H           7.5672    1.7669    2.3729 H       1  UNL1        0.0618
     49 H           8.6528   -0.0895    1.1642 H       1  UNL1        0.0618
     50 H           7.5766   -1.1078   -0.7392 H       1  UNL1        0.0618
     51 H           5.3772   -0.3170   -1.5130 H       1  UNL1        0.0621
     52 H           3.0153   -0.5948   -1.2054 H       1  UNL1        0.0427
     53 H           3.7989   -0.7693    0.3846 H       1  UNL1        0.0427
     54 H           1.6536   -2.1623   -0.2170 H       1  UNL1        0.0280
     55 H           1.9345   -1.5765    1.4347 H       1  UNL1        0.0280
     56 H          -1.1914   -0.8190   -2.1946 H       1  UNL1        0.0320
     57 H          -2.2057   -2.3455   -2.2941 H       1  UNL1        0.0320
@<TRIPOS>BOND
     1     1     2    1
     2     2     3    1
     3     3     4   ar
     4     4     5   ar
     5     5     6   ar
     6     6     7   ar
     7     7     8   ar
     8     8     9    1
     9     9    10    1
    10     6    11    1
    11    11    12    2
    12    11    13    1
    13    13    14    1
    14    14    15    1
    15    15    16    1
    16    16    17    1
    17    17    18    1
    18    18    19    1
    19    19    20    1
    20    20    21   ar
    21    21    22   ar
    22    22    23   ar
    23    23    24   ar
    24    24    25   ar
    25    18    26    1
    26    26    27    1
    27    13    28    1
    28     8     3   ar
    29    27    15    1
    30    28     5    1
    31    25    20   ar
    32     1    29    1
    33     1    30    1
    34     1    31    1
    35     4    32    1
    36     7    33    1
    37    10    34    1
    38    10    35    1
    39    10    36    1
    40    13    37    1
    41    14    38    1
    42    14    39    1
    43    15    40    1
    44    16    41    1
    45    16    42    1
    46    17    43    1
    47    17    44    1
    48    19    45    1
    49    19    46    1
    50    21    47    1
    51    22    48    1
    52    23    49    1
    53    24    50    1
    54    25    51    1
    55    26    52    1
    56    26    53    1
    57    27    54    1
    58    27    55    1
    59    28    56    1
    60    28    57    1
