@<TRIPOS>MOLECULE
*****
 69 72 0 0 0
SMALL
GASTEIGER

@<TRIPOS>ATOM
      1 C           8.7262   -1.7239    2.3402 C.3     1  UNL1       -0.0172
      2 C           8.4605   -0.8648    1.0574 C.3     1  UNL1        0.1931
      3 O           8.7581    0.4103    1.2665 O.3     1  UNL1       -0.4772
      4 C           8.2950    1.6358    1.3425 C.ar    1  UNL1        0.1324
      5 C           9.1681    2.7151    1.6154 C.ar    1  UNL1       -0.0191
      6 C           8.7643    4.0022    1.7088 C.ar    1  UNL1       -0.0548
      7 C           7.4377    4.3268    1.5357 C.ar    1  UNL1       -0.0185
      8 C           6.5438    3.3185    1.2684 C.ar    1  UNL1        0.1394
      9 O           5.2666    3.3746    1.0708 O.2     1  UNL1       -0.4501
     10 C           4.7482    2.2086    0.8447 C.ar    1  UNL1        0.1909
     11 C           3.3706    1.8184    0.5766 C.2     1  UNL1        0.2836
     12 O           2.4338    2.6634    0.5361 O.2     1  UNL1       -0.2665
     13 N           2.9926    0.4680    0.3444 N.am    1  UNL1       -0.2790
     14 C           1.6585    0.0649    0.0825 C.ar    1  UNL1        0.0338
     15 C           0.8710   -0.2758    1.1622 C.ar    1  UNL1       -0.0399
     16 C          -0.4535   -0.6813    0.9492 C.ar    1  UNL1       -0.0523
     17 C          -0.9658   -0.7395   -0.3298 C.ar    1  UNL1       -0.0178
     18 C          -2.3328   -1.1573   -0.6049 C.ar    1  UNL1       -0.0178
     19 C          -2.9354   -2.1014    0.2289 C.ar    1  UNL1       -0.0522
     20 C          -4.2243   -2.5043   -0.0207 C.ar    1  UNL1       -0.0348
     21 C          -4.9792   -2.0198   -1.0730 C.ar    1  UNL1        0.1053
     22 S          -6.5976   -2.6241   -1.2658 S.O2    1  UNL1        0.0591
     23 O          -6.9914   -2.7436   -2.7065 O.2     1  UNL1       -0.1530
     24 O          -6.6478   -4.0168   -0.6956 O.2     1  UNL1       -0.1530
     25 N          -7.6553   -1.6509   -0.3602 N.3     1  UNL1       -0.1759
     26 C          -7.7069   -0.2719   -0.7530 C.3     1  UNL1        0.1276
     27 C          -7.1928    0.6051    0.3193 C.2     1  UNL1        0.3238
     28 O          -7.1487    1.8522    0.1874 O.2     1  UNL1       -0.2492
     29 O          -6.7410    0.0671    1.5126 O.3     1  UNL1       -0.4795
     30 C          -9.0628    0.1790   -1.1932 C.3     1  UNL1       -0.0194
     31 C          -9.5792   -0.5947   -2.3783 C.3     1  UNL1       -0.0607
     32 C          -8.9768    1.6374   -1.5939 C.3     1  UNL1       -0.0607
     33 C          -4.3891   -1.0960   -1.8886 C.ar    1  UNL1       -0.0348
     34 C          -3.0864   -0.6797   -1.6478 C.ar    1  UNL1       -0.0522
     35 C          -0.1634   -0.3953   -1.3920 C.ar    1  UNL1       -0.0523
     36 C           1.1599    0.0119   -1.2023 C.ar    1  UNL1       -0.0399
     37 C           5.8029    1.2960    0.9015 C.ar    1  UNL1        0.0001
     38 C           6.9573    2.0039    1.1731 C.ar    1  UNL1        0.0625
     39 C           9.2763   -1.5002   -0.0517 C.2     1  UNL1        0.3456
     40 O          10.1085   -0.8072   -0.6421 O.2     1  UNL1       -0.2468
     41 O           9.0668   -2.8142   -0.3630 O.3     1  UNL1       -0.4781
     42 H           8.0934   -1.2643    3.1053 H       1  UNL1        0.0271
     43 H           8.4499   -2.7598    2.1070 H       1  UNL1        0.0271
     44 H           9.7748   -1.5992    2.6544 H       1  UNL1        0.0271
     45 H           7.4111   -1.1537    0.8141 H       1  UNL1        0.0849
     46 H          10.2039    2.4591    1.7502 H       1  UNL1        0.0654
     47 H           9.4684    4.8213    1.9223 H       1  UNL1        0.0620
     48 H           7.1447    5.3574    1.6152 H       1  UNL1        0.0654
     49 H           3.7613   -0.2624    0.3722 H       1  UNL1        0.1552
     50 H           1.1979   -0.2556    2.1816 H       1  UNL1        0.0636
     51 H          -1.0841   -0.9509    1.7753 H       1  UNL1        0.0624
     52 H          -2.3420   -2.4895    1.0648 H       1  UNL1        0.0624
     53 H          -4.6809   -3.2509    0.6508 H       1  UNL1        0.0637
     54 H          -8.5893   -2.0970   -0.2483 H       1  UNL1        0.1489
     55 H          -7.0106   -0.1449   -1.6125 H       1  UNL1        0.0595
     56 H          -6.8967    0.5349    2.4024 H       1  UNL1        0.2951
     57 H          -9.8289    0.1157   -0.4000 H       1  UNL1        0.0316
     58 H          -9.5983   -1.6672   -2.0818 H       1  UNL1        0.0233
     59 H          -8.8848   -0.5428   -3.2503 H       1  UNL1        0.0233
     60 H         -10.6103   -0.3220   -2.6492 H       1  UNL1        0.0233
     61 H          -7.9862    1.8516   -2.0027 H       1  UNL1        0.0233
     62 H          -9.7906    1.8180   -2.3544 H       1  UNL1        0.0233
     63 H          -9.2598    2.3071   -0.7367 H       1  UNL1        0.0233
     64 H          -4.9610   -0.7021   -2.7209 H       1  UNL1        0.0637
     65 H          -2.6291    0.0621   -2.3123 H       1  UNL1        0.0624
     66 H          -0.5831   -0.4475   -2.3834 H       1  UNL1        0.0624
     67 H           1.7800    0.2802   -2.0481 H       1  UNL1        0.0636
     68 H           5.7332    0.2445    0.7619 H       1  UNL1        0.0664
     69 H           9.6807   -3.3386   -0.9648 H       1  UNL1        0.2952
@<TRIPOS>BOND
     1     1     2    1
     2     2     3    1
     3     3     4    1
     4     4     5   ar
     5     5     6   ar
     6     6     7   ar
     7     7     8   ar
     8     8     9   ar
     9     9    10   ar
    10    10    11    1
    11    11    12    2
    12    11    13   am
    13    13    14    1
    14    14    15   ar
    15    15    16   ar
    16    16    17   ar
    17    17    18    1
    18    18    19   ar
    19    19    20   ar
    20    20    21   ar
    21    21    22    1
    22    22    23    2
    23    22    24    2
    24    22    25    1
    25    25    26    1
    26    26    27    1
    27    27    28    2
    28    27    29    1
    29    26    30    1
    30    30    31    1
    31    30    32    1
    32    21    33   ar
    33    33    34   ar
    34    17    35   ar
    35    35    36   ar
    36    10    37   ar
    37    37    38   ar
    38     2    39    1
    39    39    40    2
    40    39    41    1
    41    38     4   ar
    42    38     8   ar
    43    36    14   ar
    44    34    18   ar
    45     1    42    1
    46     1    43    1
    47     1    44    1
    48     2    45    1
    49     5    46    1
    50     6    47    1
    51     7    48    1
    52    13    49    1
    53    15    50    1
    54    16    51    1
    55    19    52    1
    56    20    53    1
    57    25    54    1
    58    26    55    1
    59    29    56    1
    60    30    57    1
    61    31    58    1
    62    31    59    1
    63    31    60    1
    64    32    61    1
    65    32    62    1
    66    32    63    1
    67    33    64    1
    68    34    65    1
    69    35    66    1
    70    36    67    1
    71    37    68    1
    72    41    69    1
