@<TRIPOS>MOLECULE
*****
 83 87 0 0 0
SMALL
GASTEIGER

@<TRIPOS>ATOM
      1 C          -5.9530   -0.9622    1.1539 C.3     1  UNL1       -0.0437
      2 C          -5.2531    0.3016    0.5912 C.3     1  UNL1        0.0323
      3 C          -5.4034    1.3335    1.6773 C.3     1  UNL1       -0.0437
      4 N          -6.0748    0.6688   -0.5292 N.am    1  UNL1       -0.3100
      5 C          -5.7433    0.8187   -1.8742 C.2     1  UNL1        0.2134
      6 O          -6.7541    0.7463   -2.6445 O.2     1  UNL1       -0.2758
      7 C          -4.4705    1.0398   -2.5485 C.3     1  UNL1        0.0245
      8 C          -3.2886    0.3927   -1.9712 C.3     1  UNL1       -0.0384
      9 C          -2.9751    0.7315   -0.4976 C.3     1  UNL1       -0.0165
     10 C          -3.3293    2.2024   -0.4212 C.3     1  UNL1       -0.0586
     11 C          -3.8795   -0.1366    0.3019 C.3     1  UNL1       -0.0141
     12 C          -3.2946   -0.5934    1.6283 C.3     1  UNL1       -0.0472
     13 C          -2.0343   -1.3626    1.2615 C.3     1  UNL1       -0.0458
     14 C          -1.0671   -0.2783    0.8747 C.3     1  UNL1       -0.0127
     15 C          -0.8866    0.6715    2.0364 C.3     1  UNL1       -0.0581
     16 C          -1.5254    0.4646   -0.3445 C.3     1  UNL1        0.0334
     17 C          -0.5981    1.6211   -0.4417 C.2     1  UNL1        0.1602
     18 O          -0.8892    2.8128   -0.6234 O.2     1  UNL1       -0.2923
     19 C           0.8232    1.2965   -0.3045 C.2     1  UNL1       -0.0188
     20 C           1.2600    0.1402    0.1782 C.2     1  UNL1       -0.0561
     21 C           2.7402   -0.0348    0.2535 C.3     1  UNL1       -0.0116
     22 C           3.2608   -0.0306   -1.1532 C.3     1  UNL1       -0.0248
     23 C           4.7642   -0.1124   -1.2403 C.3     1  UNL1        0.0338
     24 C           5.0873   -0.6306   -2.6293 C.3     1  UNL1       -0.0436
     25 N           5.2896    1.2314   -1.1567 N.am    1  UNL1       -0.2943
     26 C           6.6879    1.4618   -1.2086 C.2     1  UNL1        0.2975
     27 N           7.2041    2.8021   -1.1253 N.am    1  UNL1       -0.3133
     28 O           7.4687    0.4835   -1.3281 O.2     1  UNL1       -0.2531
     29 C           5.3526   -1.0329   -0.2040 C.3     1  UNL1       -0.0313
     30 C           4.2987   -1.9208    0.4247 C.3     1  UNL1       -0.0452
     31 C           3.2069   -1.1272    1.1136 C.3     1  UNL1       -0.0254
     32 C           3.8409   -0.5629    2.3802 C.3     1  UNL1       -0.0590
     33 C           2.1619   -2.1063    1.5797 C.3     1  UNL1       -0.0463
     34 C           0.8942   -1.3843    1.9564 C.3     1  UNL1       -0.0429
     35 C           0.2992   -0.9069    0.6195 C.3     1  UNL1       -0.0043
     36 C           0.2331   -2.1099   -0.2528 C.3     1  UNL1       -0.0553
     37 H          -5.4993   -1.8747    0.7546 H       1  UNL1        0.0250
     38 H          -5.9580   -0.9312    2.2705 H       1  UNL1        0.0250
     39 H          -7.0255   -0.9839    0.8719 H       1  UNL1        0.0250
     40 H          -6.0824    2.1833    1.3668 H       1  UNL1        0.0250
     41 H          -5.8975    0.9330    2.5896 H       1  UNL1        0.0250
     42 H          -4.4507    1.7570    2.0317 H       1  UNL1        0.0250
     43 H          -7.0733    0.8395   -0.2281 H       1  UNL1        0.1492
     44 H          -4.5743    0.5490   -3.5702 H       1  UNL1        0.0358
     45 H          -4.3197    2.1201   -2.8511 H       1  UNL1        0.0358
     46 H          -2.4042    0.6259   -2.5929 H       1  UNL1        0.0275
     47 H          -3.4176   -0.7105   -2.0257 H       1  UNL1        0.0275
     48 H          -3.0593    2.6958   -1.3778 H       1  UNL1        0.0235
     49 H          -2.9313    2.7203    0.4645 H       1  UNL1        0.0235
     50 H          -4.4311    2.3478   -0.3543 H       1  UNL1        0.0235
     51 H          -3.9863   -1.1268   -0.2472 H       1  UNL1        0.0327
     52 H          -3.9902   -1.3692    2.0338 H       1  UNL1        0.0269
     53 H          -3.0913    0.2063    2.3254 H       1  UNL1        0.0269
     54 H          -2.2414   -2.0259    0.4028 H       1  UNL1        0.0271
     55 H          -1.7400   -1.9204    2.1417 H       1  UNL1        0.0271
     56 H          -1.5728    1.5320    2.0264 H       1  UNL1        0.0236
     57 H           0.1479    1.1256    2.0541 H       1  UNL1        0.0236
     58 H          -0.9397    0.0985    2.9943 H       1  UNL1        0.0236
     59 H          -1.1505   -0.2108   -1.1849 H       1  UNL1        0.0392
     60 H           1.5450    2.0639   -0.6222 H       1  UNL1        0.0652
     61 H           3.1037    0.9428    0.6986 H       1  UNL1        0.0352
     62 H           2.8408   -0.8516   -1.7655 H       1  UNL1        0.0292
     63 H           2.9774    0.9203   -1.6510 H       1  UNL1        0.0292
     64 H           6.0642   -0.3333   -3.0021 H       1  UNL1        0.0250
     65 H           4.3311   -0.1539   -3.3196 H       1  UNL1        0.0250
     66 H           4.8835   -1.7193   -2.6874 H       1  UNL1        0.0250
     67 H           4.6527    2.0780   -1.0548 H       1  UNL1        0.1508
     68 H           8.0642    3.0556   -0.6329 H       1  UNL1        0.1465
     69 H           6.6595    3.5488   -1.5993 H       1  UNL1        0.1465
     70 H           6.0819   -1.7144   -0.6886 H       1  UNL1        0.0286
     71 H           5.9141   -0.4830    0.5788 H       1  UNL1        0.0286
     72 H           4.8069   -2.6087    1.1283 H       1  UNL1        0.0271
     73 H           3.8130   -2.4837   -0.3995 H       1  UNL1        0.0271
     74 H           3.2352   -0.7755    3.2861 H       1  UNL1        0.0235
     75 H           4.8456   -0.9693    2.5757 H       1  UNL1        0.0235
     76 H           3.8599    0.5650    2.3126 H       1  UNL1        0.0235
     77 H           2.0523   -2.8818    0.8299 H       1  UNL1        0.0271
     78 H           2.5104   -2.6223    2.5226 H       1  UNL1        0.0271
     79 H           1.1666   -0.5506    2.6055 H       1  UNL1        0.0274
     80 H           0.2543   -2.0935    2.4749 H       1  UNL1        0.0274
     81 H           1.1324   -2.2678   -0.8835 H       1  UNL1        0.0238
     82 H           0.0678   -3.0246    0.3960 H       1  UNL1        0.0238
     83 H          -0.6276   -2.1492   -0.9522 H       1  UNL1        0.0238
@<TRIPOS>BOND
     1     1     2    1
     2     2     3    1
     3     2     4    1
     4     4     5   am
     5     5     6    2
     6     5     7    1
     7     7     8    1
     8     8     9    1
     9     9    10    1
    10     9    11    1
    11    11    12    1
    12    12    13    1
    13    13    14    1
    14    14    15    1
    15    14    16    1
    16    16    17    1
    17    17    18    2
    18    17    19    1
    19    19    20    2
    20    20    21    1
    21    21    22    1
    22    22    23    1
    23    23    24    1
    24    23    25    1
    25    25    26   am
    26    26    27   am
    27    26    28    2
    28    23    29    1
    29    29    30    1
    30    30    31    1
    31    31    32    1
    32    31    33    1
    33    33    34    1
    34    34    35    1
    35    35    36    1
    36    11     2    1
    37    35    14    1
    38    16     9    1
    39    35    20    1
    40    31    21    1
    41     1    37    1
    42     1    38    1
    43     1    39    1
    44     3    40    1
    45     3    41    1
    46     3    42    1
    47     4    43    1
    48     7    44    1
    49     7    45    1
    50     8    46    1
    51     8    47    1
    52    10    48    1
    53    10    49    1
    54    10    50    1
    55    11    51    1
    56    12    52    1
    57    12    53    1
    58    13    54    1
    59    13    55    1
    60    15    56    1
    61    15    57    1
    62    15    58    1
    63    16    59    1
    64    19    60    1
    65    21    61    1
    66    22    62    1
    67    22    63    1
    68    24    64    1
    69    24    65    1
    70    24    66    1
    71    25    67    1
    72    27    68    1
    73    27    69    1
    74    29    70    1
    75    29    71    1
    76    30    72    1
    77    30    73    1
    78    32    74    1
    79    32    75    1
    80    32    76    1
    81    33    77    1
    82    33    78    1
    83    34    79    1
    84    34    80    1
    85    36    81    1
    86    36    82    1
    87    36    83    1
