
     RDKit          3D

 83 87  0  0  0  0  0  0  0  0999 V2000
   -5.9530   -0.9622    1.1539 C   0  0  0  0  0  0  0  0  0  0  0  0
   -5.2531    0.3016    0.5912 C   0  0  0  0  0  0  0  0  0  0  0  0
   -5.4034    1.3335    1.6773 C   0  0  0  0  0  0  0  0  0  0  0  0
   -6.0748    0.6688   -0.5292 N   0  0  0  0  0  0  0  0  0  0  0  0
   -5.7433    0.8187   -1.8742 C   0  0  0  0  0  0  0  0  0  0  0  0
   -6.7541    0.7463   -2.6445 O   0  0  0  0  0  0  0  0  0  0  0  0
   -4.4705    1.0398   -2.5485 C   0  0  0  0  0  0  0  0  0  0  0  0
   -3.2886    0.3927   -1.9712 C   0  0  0  0  0  0  0  0  0  0  0  0
   -2.9751    0.7315   -0.4976 C   0  0  1  0  0  0  0  0  0  0  0  0
   -3.3293    2.2024   -0.4212 C   0  0  0  0  0  0  0  0  0  0  0  0
   -3.8795   -0.1366    0.3019 C   0  0  1  0  0  0  0  0  0  0  0  0
   -3.2946   -0.5934    1.6283 C   0  0  0  0  0  0  0  0  0  0  0  0
   -2.0343   -1.3626    1.2615 C   0  0  0  0  0  0  0  0  0  0  0  0
   -1.0671   -0.2783    0.8747 C   0  0  2  0  0  0  0  0  0  0  0  0
   -0.8866    0.6715    2.0364 C   0  0  0  0  0  0  0  0  0  0  0  0
   -1.5254    0.4646   -0.3445 C   0  0  2  0  0  0  0  0  0  0  0  0
   -0.5981    1.6211   -0.4417 C   0  0  0  0  0  0  0  0  0  0  0  0
   -0.8892    2.8128   -0.6234 O   0  0  0  0  0  0  0  0  0  0  0  0
    0.8232    1.2965   -0.3045 C   0  0  0  0  0  0  0  0  0  0  0  0
    1.2600    0.1402    0.1782 C   0  0  0  0  0  0  0  0  0  0  0  0
    2.7402   -0.0348    0.2535 C   0  0  2  0  0  0  0  0  0  0  0  0
    3.2608   -0.0306   -1.1532 C   0  0  0  0  0  0  0  0  0  0  0  0
    4.7642   -0.1124   -1.2403 C   0  0  1  0  0  0  0  0  0  0  0  0
    5.0873   -0.6306   -2.6293 C   0  0  0  0  0  0  0  0  0  0  0  0
    5.2896    1.2314   -1.1567 N   0  0  0  0  0  0  0  0  0  0  0  0
    6.6879    1.4618   -1.2086 C   0  0  0  0  0  0  0  0  0  0  0  0
    7.2041    2.8021   -1.1253 N   0  0  0  0  0  0  0  0  0  0  0  0
    7.4687    0.4835   -1.3281 O   0  0  0  0  0  0  0  0  0  0  0  0
    5.3526   -1.0329   -0.2040 C   0  0  0  0  0  0  0  0  0  0  0  0
    4.2987   -1.9208    0.4247 C   0  0  0  0  0  0  0  0  0  0  0  0
    3.2069   -1.1272    1.1136 C   0  0  1  0  0  0  0  0  0  0  0  0
    3.8409   -0.5629    2.3802 C   0  0  0  0  0  0  0  0  0  0  0  0
    2.1619   -2.1063    1.5797 C   0  0  0  0  0  0  0  0  0  0  0  0
    0.8942   -1.3843    1.9564 C   0  0  0  0  0  0  0  0  0  0  0  0
    0.2992   -0.9069    0.6195 C   0  0  1  0  0  0  0  0  0  0  0  0
    0.2331   -2.1099   -0.2528 C   0  0  0  0  0  0  0  0  0  0  0  0
   -5.4993   -1.8747    0.7546 H   0  0  0  0  0  0  0  0  0  0  0  0
   -5.9580   -0.9312    2.2705 H   0  0  0  0  0  0  0  0  0  0  0  0
   -7.0255   -0.9839    0.8719 H   0  0  0  0  0  0  0  0  0  0  0  0
   -6.0824    2.1833    1.3668 H   0  0  0  0  0  0  0  0  0  0  0  0
   -5.8975    0.9330    2.5896 H   0  0  0  0  0  0  0  0  0  0  0  0
   -4.4507    1.7570    2.0317 H   0  0  0  0  0  0  0  0  0  0  0  0
   -7.0733    0.8395   -0.2281 H   0  0  0  0  0  0  0  0  0  0  0  0
   -4.5743    0.5490   -3.5702 H   0  0  0  0  0  0  0  0  0  0  0  0
   -4.3197    2.1201   -2.8511 H   0  0  0  0  0  0  0  0  0  0  0  0
   -2.4042    0.6259   -2.5929 H   0  0  0  0  0  0  0  0  0  0  0  0
   -3.4176   -0.7105   -2.0257 H   0  0  0  0  0  0  0  0  0  0  0  0
   -3.0593    2.6958   -1.3778 H   0  0  0  0  0  0  0  0  0  0  0  0
   -2.9313    2.7203    0.4645 H   0  0  0  0  0  0  0  0  0  0  0  0
   -4.4311    2.3478   -0.3543 H   0  0  0  0  0  0  0  0  0  0  0  0
   -3.9863   -1.1268   -0.2472 H   0  0  0  0  0  0  0  0  0  0  0  0
   -3.9902   -1.3692    2.0338 H   0  0  0  0  0  0  0  0  0  0  0  0
   -3.0913    0.2063    2.3254 H   0  0  0  0  0  0  0  0  0  0  0  0
   -2.2414   -2.0259    0.4028 H   0  0  0  0  0  0  0  0  0  0  0  0
   -1.7400   -1.9204    2.1417 H   0  0  0  0  0  0  0  0  0  0  0  0
   -1.5728    1.5320    2.0264 H   0  0  0  0  0  0  0  0  0  0  0  0
    0.1479    1.1256    2.0541 H   0  0  0  0  0  0  0  0  0  0  0  0
   -0.9397    0.0985    2.9943 H   0  0  0  0  0  0  0  0  0  0  0  0
   -1.1505   -0.2108   -1.1849 H   0  0  0  0  0  0  0  0  0  0  0  0
    1.5450    2.0639   -0.6222 H   0  0  0  0  0  0  0  0  0  0  0  0
    3.1037    0.9428    0.6986 H   0  0  0  0  0  0  0  0  0  0  0  0
    2.8408   -0.8516   -1.7655 H   0  0  0  0  0  0  0  0  0  0  0  0
    2.9774    0.9203   -1.6510 H   0  0  0  0  0  0  0  0  0  0  0  0
    6.0642   -0.3333   -3.0021 H   0  0  0  0  0  0  0  0  0  0  0  0
    4.3311   -0.1539   -3.3196 H   0  0  0  0  0  0  0  0  0  0  0  0
    4.8835   -1.7193   -2.6874 H   0  0  0  0  0  0  0  0  0  0  0  0
    4.6527    2.0780   -1.0548 H   0  0  0  0  0  0  0  0  0  0  0  0
    8.0642    3.0556   -0.6329 H   0  0  0  0  0  0  0  0  0  0  0  0
    6.6595    3.5488   -1.5993 H   0  0  0  0  0  0  0  0  0  0  0  0
    6.0819   -1.7144   -0.6886 H   0  0  0  0  0  0  0  0  0  0  0  0
    5.9141   -0.4830    0.5788 H   0  0  0  0  0  0  0  0  0  0  0  0
    4.8069   -2.6087    1.1283 H   0  0  0  0  0  0  0  0  0  0  0  0
    3.8130   -2.4837   -0.3995 H   0  0  0  0  0  0  0  0  0  0  0  0
    3.2352   -0.7755    3.2861 H   0  0  0  0  0  0  0  0  0  0  0  0
    4.8456   -0.9693    2.5757 H   0  0  0  0  0  0  0  0  0  0  0  0
    3.8599    0.5650    2.3126 H   0  0  0  0  0  0  0  0  0  0  0  0
    2.0523   -2.8818    0.8299 H   0  0  0  0  0  0  0  0  0  0  0  0
    2.5104   -2.6223    2.5226 H   0  0  0  0  0  0  0  0  0  0  0  0
    1.1666   -0.5506    2.6055 H   0  0  0  0  0  0  0  0  0  0  0  0
    0.2543   -2.0935    2.4749 H   0  0  0  0  0  0  0  0  0  0  0  0
    1.1324   -2.2678   -0.8835 H   0  0  0  0  0  0  0  0  0  0  0  0
    0.0678   -3.0246    0.3960 H   0  0  0  0  0  0  0  0  0  0  0  0
   -0.6276   -2.1492   -0.9522 H   0  0  0  0  0  0  0  0  0  0  0  0
  1  2  1  0
  2  3  1  0
  2  4  1  0
  4  5  1  0
  5  6  2  0
  5  7  1  0
  7  8  1  0
  8  9  1  0
  9 10  1  6
  9 11  1  0
 11 12  1  0
 12 13  1  0
 13 14  1  0
 14 15  1  1
 14 16  1  0
 16 17  1  0
 17 18  2  0
 17 19  1  0
 19 20  2  0
 20 21  1  0
 21 22  1  0
 22 23  1  0
 23 24  1  0
 23 25  1  6
 25 26  1  0
 26 27  1  0
 26 28  2  0
 23 29  1  0
 29 30  1  0
 30 31  1  0
 31 32  1  1
 31 33  1  0
 33 34  1  0
 34 35  1  0
 35 36  1  6
 11  2  1  0
 35 14  1  0
 16  9  1  0
 35 20  1  0
 31 21  1  0
  1 37  1  0
  1 38  1  0
  1 39  1  0
  3 40  1  0
  3 41  1  0
  3 42  1  0
  4 43  1  0
  7 44  1  0
  7 45  1  0
  8 46  1  0
  8 47  1  0
 10 48  1  0
 10 49  1  0
 10 50  1  0
 11 51  1  6
 12 52  1  0
 12 53  1  0
 13 54  1  0
 13 55  1  0
 15 56  1  0
 15 57  1  0
 15 58  1  0
 16 59  1  6
 19 60  1  0
 21 61  1  1
 22 62  1  0
 22 63  1  0
 24 64  1  0
 24 65  1  0
 24 66  1  0
 25 67  1  0
 27 68  1  0
 27 69  1  0
 29 70  1  0
 29 71  1  0
 30 72  1  0
 30 73  1  0
 32 74  1  0
 32 75  1  0
 32 76  1  0
 33 77  1  0
 33 78  1  0
 34 79  1  0
 34 80  1  0
 36 81  1  0
 36 82  1  0
 36 83  1  0
M  END
$$$$
