@<TRIPOS>MOLECULE
*****
 27 30 0 0 0
SMALL
GASTEIGER

@<TRIPOS>ATOM
      1 O          -0.1943   -3.5807    0.3182 O.2     1  UNL1       -0.2833
      2 C           0.2353   -2.4060    0.3187 C.2     1  UNL1        0.2320
      3 C           1.6331   -1.9920    0.4217 C.ar    1  UNL1        0.0676
      4 C           2.8251   -2.7157    0.5414 C.ar    1  UNL1        0.0539
      5 CL          2.7203   -4.4679    0.5848 Cl      1  UNL1       -0.0827
      6 C           4.0219   -2.0454    0.6202 C.ar    1  UNL1       -0.0426
      7 C           4.0591   -0.6733    0.5825 C.ar    1  UNL1       -0.0584
      8 C           2.8848    0.0369    0.4647 C.ar    1  UNL1       -0.0369
      9 C           1.6614   -0.6140    0.3831 C.ar    1  UNL1        0.0639
     10 N           0.3373   -0.0998    0.2587 N.ar    1  UNL1       -0.2571
     11 C          -0.5106   -1.1413    0.2197 C.ar    1  UNL1        0.1895
     12 N          -1.8519   -0.9526    0.1035 N.ar    1  UNL1       -0.2254
     13 C          -2.3429    0.3022    0.0258 C.ar    1  UNL1        0.0786
     14 C          -3.6855    0.5682   -0.0928 C.ar    1  UNL1       -0.0355
     15 C          -4.1358    1.8683   -0.1684 C.ar    1  UNL1       -0.0597
     16 C          -3.2842    2.9516   -0.1304 C.ar    1  UNL1       -0.0609
     17 C          -1.9356    2.6699   -0.0108 C.ar    1  UNL1       -0.0473
     18 C          -1.4617    1.3620    0.0670 C.ar    1  UNL1        0.0653
     19 C          -0.0998    1.1810    0.1847 C.ar    1  UNL1        0.2666
     20 O           0.7018    2.1652    0.2216 O.2     1  UNL1       -0.2666
     21 H           4.9405   -2.6039    0.7125 H       1  UNL1        0.0632
     22 H           5.0330   -0.1637    0.6477 H       1  UNL1        0.0619
     23 H           2.9042    1.1014    0.4347 H       1  UNL1        0.0638
     24 H          -4.3714   -0.2852   -0.1240 H       1  UNL1        0.0639
     25 H          -5.1921    2.0715   -0.2616 H       1  UNL1        0.0618
     26 H          -3.6732    3.9653   -0.1925 H       1  UNL1        0.0618
     27 H          -1.2186    3.4980    0.0237 H       1  UNL1        0.0626
@<TRIPOS>BOND
     1     1     2    2
     2     2     3    1
     3     3     4   ar
     4     4     5    1
     5     4     6   ar
     6     6     7   ar
     7     7     8   ar
     8     8     9   ar
     9     9    10    1
    10    10    11   ar
    11    11    12   ar
    12    12    13   ar
    13    13    14   ar
    14    14    15   ar
    15    15    16   ar
    16    16    17   ar
    17    17    18   ar
    18    18    19   ar
    19    19    20    2
    20    11     2    1
    21    18    13   ar
    22     9     3   ar
    23    19    10   ar
    24     6    21    1
    25     7    22    1
    26     8    23    1
    27    14    24    1
    28    15    25    1
    29    16    26    1
    30    17    27    1
