@<TRIPOS>MOLECULE
*****
 61 64 0 0 0
SMALL
GASTEIGER

@<TRIPOS>ATOM
      1 C           7.0523   -0.4776    1.9953 C.3     1  UNL1       -0.0363
      2 C           6.7561   -0.9533    0.5992 C.3     1  UNL1        0.0608
      3 C           5.3786   -1.5237    0.5437 C.3     1  UNL1       -0.0363
      4 O           7.6366   -2.0791    0.3981 O.3     1  UNL1       -0.3891
      5 C           7.0182    0.0506   -0.4494 C.3     1  UNL1       -0.0205
      6 C           6.3310    1.3454   -0.4284 C.3     1  UNL1       -0.0251
      7 C           4.8664    1.2988   -0.5134 C.ar    1  UNL1       -0.0470
      8 C           4.0978    1.3319    0.6208 C.ar    1  UNL1       -0.0551
      9 C           2.7179    1.2888    0.4947 C.ar    1  UNL1       -0.0197
     10 C           2.0790    1.2141   -0.7253 C.ar    1  UNL1        0.1210
     11 O           0.6968    1.1715   -0.8412 O.3     1  UNL1       -0.4874
     12 C          -0.0608    1.2072    0.3468 C.3     1  UNL1        0.1147
     13 C          -1.5203    1.1553    0.0769 C.ar    1  UNL1       -0.0091
     14 C          -2.1731   -0.0559    0.0063 C.ar    1  UNL1       -0.0456
     15 C          -3.5292   -0.0987   -0.2447 C.ar    1  UNL1        0.0085
     16 C          -4.2818   -1.3303   -0.3309 C.ar    1  UNL1       -0.0124
     17 C          -3.7789   -2.3743   -1.0684 C.ar    1  UNL1       -0.0537
     18 C          -4.4904   -3.5775   -1.1639 C.ar    1  UNL1       -0.0577
     19 C          -5.6965   -3.7470   -0.5311 C.ar    1  UNL1       -0.0197
     20 C          -6.2022   -2.6843    0.2160 C.ar    1  UNL1        0.1274
     21 O          -7.4066   -2.8960    0.8299 O.3     1  UNL1       -0.4342
     22 C          -8.0950   -1.9742    1.6238 C.3     1  UNL1        0.3893
     23 F          -8.3023   -2.4904    2.8977 F       1  UNL1       -0.1663
     24 F          -9.3519   -1.6699    1.0831 F       1  UNL1       -0.1663
     25 C          -5.4943   -1.5068    0.3027 C.ar    1  UNL1       -0.0120
     26 C          -4.2071    1.1124   -0.4223 C.ar    1  UNL1        0.0787
     27 N          -5.5486    1.0999   -0.6730 N.ar    1  UNL1       -0.2544
     28 C          -6.2402    2.2359   -0.8510 C.ar    1  UNL1        0.0283
     29 C          -5.6104    3.4603   -0.7852 C.ar    1  UNL1       -0.0430
     30 C          -4.2559    3.5295   -0.5345 C.ar    1  UNL1       -0.0511
     31 C          -3.5852    2.3382   -0.3581 C.ar    1  UNL1        0.0013
     32 C          -2.2151    2.3320   -0.1024 C.ar    1  UNL1       -0.0461
     33 C           2.9025    1.1831   -1.8500 C.ar    1  UNL1       -0.0197
     34 C           4.2703    1.2234   -1.7726 C.ar    1  UNL1       -0.0551
     35 H           7.8615    0.2680    2.0496 H       1  UNL1        0.0257
     36 H           6.1162   -0.1321    2.4914 H       1  UNL1        0.0257
     37 H           7.3744   -1.3554    2.5918 H       1  UNL1        0.0257
     38 H           4.7902   -1.2776    1.4709 H       1  UNL1        0.0257
     39 H           5.4527   -2.6597    0.4989 H       1  UNL1        0.0257
     40 H           4.8689   -1.2227   -0.3811 H       1  UNL1        0.0257
     41 H           8.4122   -1.7949   -0.1327 H       1  UNL1        0.2101
     42 H           6.8773   -0.4178   -1.4768 H       1  UNL1        0.0296
     43 H           8.1334    0.2598   -0.4374 H       1  UNL1        0.0296
     44 H           6.6537    1.9978   -1.3061 H       1  UNL1        0.0314
     45 H           6.5964    1.9902    0.4491 H       1  UNL1        0.0314
     46 H           4.5154    1.3923    1.6080 H       1  UNL1        0.0621
     47 H           2.0900    1.3137    1.3778 H       1  UNL1        0.0654
     48 H           0.2166    0.3901    1.0575 H       1  UNL1        0.0748
     49 H           0.2283    2.1558    0.8773 H       1  UNL1        0.0748
     50 H          -1.6661   -1.0104    0.1412 H       1  UNL1        0.0628
     51 H          -2.8313   -2.3085   -1.5942 H       1  UNL1        0.0624
     52 H          -4.1054   -4.4148   -1.7446 H       1  UNL1        0.0619
     53 H          -6.2469   -4.6894   -0.6100 H       1  UNL1        0.0654
     54 H          -7.6057   -0.9932    1.7543 H       1  UNL1        0.1520
     55 H          -5.8591   -0.6694    0.8736 H       1  UNL1        0.0660
     56 H          -7.2980    2.1980   -1.0475 H       1  UNL1        0.0830
     57 H          -6.2018    4.3729   -0.9348 H       1  UNL1        0.0633
     58 H          -3.7622    4.4858   -0.4828 H       1  UNL1        0.0625
     59 H          -1.6965    3.2710   -0.0453 H       1  UNL1        0.0628
     60 H           2.4088    1.1248   -2.8040 H       1  UNL1        0.0654
     61 H           4.9193    1.2002   -2.6334 H       1  UNL1        0.0621
@<TRIPOS>BOND
     1     1     2    1
     2     2     3    1
     3     2     4    1
     4     2     5    1
     5     5     6    1
     6     6     7    1
     7     7     8   ar
     8     8     9   ar
     9     9    10   ar
    10    10    11    1
    11    11    12    1
    12    12    13    1
    13    13    14   ar
    14    14    15   ar
    15    15    16    1
    16    16    17   ar
    17    17    18   ar
    18    18    19   ar
    19    19    20   ar
    20    20    21    1
    21    21    22    1
    22    22    23    1
    23    22    24    1
    24    20    25   ar
    25    15    26   ar
    26    26    27   ar
    27    27    28   ar
    28    28    29   ar
    29    29    30   ar
    30    30    31   ar
    31    31    32   ar
    32    10    33   ar
    33    33    34   ar
    34    34     7   ar
    35    32    13   ar
    36    25    16   ar
    37    31    26   ar
    38     1    35    1
    39     1    36    1
    40     1    37    1
    41     3    38    1
    42     3    39    1
    43     3    40    1
    44     4    41    1
    45     5    42    1
    46     5    43    1
    47     6    44    1
    48     6    45    1
    49     8    46    1
    50     9    47    1
    51    12    48    1
    52    12    49    1
    53    14    50    1
    54    17    51    1
    55    18    52    1
    56    19    53    1
    57    22    54    1
    58    25    55    1
    59    28    56    1
    60    29    57    1
    61    30    58    1
    62    32    59    1
    63    33    60    1
    64    34    61    1
