
     RDKit          3D

 41 44  0  0  0  0  0  0  0  0999 V2000
   -4.5354    0.1068   -3.3490 N   0  0  0  0  0  0  0  0  0  0  0  0
   -4.0390    0.8060   -2.5599 C   0  0  0  0  0  0  0  0  0  0  0  0
   -3.4038    1.6574   -1.5845 C   0  0  0  0  0  0  0  0  0  0  0  0
   -3.7154    2.9968   -1.4058 C   0  0  0  0  0  0  0  0  0  0  0  0
   -2.9477    3.4756   -0.4312 N   0  0  0  0  0  0  0  0  0  0  0  0
   -2.1550    2.4531    0.0071 C   0  0  0  0  0  0  0  0  0  0  0  0
   -1.1879    2.3732    0.9820 C   0  0  0  0  0  0  0  0  0  0  0  0
   -0.5569    1.1664    1.1868 C   0  0  0  0  0  0  0  0  0  0  0  0
   -0.8655    0.0424    0.4460 C   0  0  0  0  0  0  0  0  0  0  0  0
   -0.1854   -1.2106    0.6883 C   0  0  0  0  0  0  0  0  0  0  0  0
    1.1123   -1.5081    0.4185 C   0  0  0  0  0  0  0  0  0  0  0  0
    2.1389   -0.6720   -0.1791 C   0  0  0  0  0  0  0  0  0  0  0  0
    2.5818   -0.9112   -1.4890 C   0  0  0  0  0  0  0  0  0  0  0  0
    3.5552   -0.1609   -2.1027 C   0  0  0  0  0  0  0  0  0  0  0  0
    4.1484    0.8866   -1.4302 C   0  0  0  0  0  0  0  0  0  0  0  0
    5.1143    1.6457   -2.0126 F   0  0  0  0  0  0  0  0  0  0  0  0
    3.7431    1.1529   -0.1472 C   0  0  0  0  0  0  0  0  0  0  0  0
    4.3952    2.2916    0.5655 C   0  0  0  0  0  0  0  0  0  0  0  0
    4.1306    3.4222   -0.1911 F   0  0  0  0  0  0  0  0  0  0  0  0
    3.8568    2.3995    1.8330 F   0  0  0  0  0  0  0  0  0  0  0  0
    5.7612    2.1272    0.6712 F   0  0  0  0  0  0  0  0  0  0  0  0
    2.7555    0.3831    0.4614 C   0  0  0  0  0  0  0  0  0  0  0  0
    1.3105   -2.7821    0.8161 N   0  0  0  0  0  0  0  0  0  0  0  0
    0.1891   -3.2943    1.3235 C   0  0  0  0  0  0  0  0  0  0  0  0
   -0.7562   -2.3102    1.2460 N   0  0  0  0  0  0  0  0  0  0  0  0
   -2.1106   -2.4897    1.6943 C   0  0  0  0  0  0  0  0  0  0  0  0
   -2.9830   -3.0480    0.5690 C   0  0  0  0  0  0  0  0  0  0  0  0
   -2.4576   -4.2793    0.1730 F   0  0  0  0  0  0  0  0  0  0  0  0
   -4.2827   -3.2223    1.0079 F   0  0  0  0  0  0  0  0  0  0  0  0
   -1.8175    0.1772   -0.4933 N   0  0  0  0  0  0  0  0  0  0  0  0
   -2.4314    1.3396   -0.6963 N   0  0  0  0  0  0  0  0  0  0  0  0
   -4.4490    3.5567   -1.9543 H   0  0  0  0  0  0  0  0  0  0  0  0
   -0.9358    3.2455    1.5704 H   0  0  0  0  0  0  0  0  0  0  0  0
    0.2120    1.0701    1.9592 H   0  0  0  0  0  0  0  0  0  0  0  0
    2.1023   -1.7454   -2.0098 H   0  0  0  0  0  0  0  0  0  0  0  0
    3.8879   -0.3578   -3.1162 H   0  0  0  0  0  0  0  0  0  0  0  0
    2.4750    0.6201    1.4599 H   0  0  0  0  0  0  0  0  0  0  0  0
    0.0121   -4.2912    1.7304 H   0  0  0  0  0  0  0  0  0  0  0  0
   -2.5570   -1.5440    2.0838 H   0  0  0  0  0  0  0  0  0  0  0  0
   -2.1052   -3.2418    2.5071 H   0  0  0  0  0  0  0  0  0  0  0  0
   -3.0041   -2.3268   -0.2483 H   0  0  0  0  0  0  0  0  0  0  0  0
  1  2  3  0
  2  3  1  0
  3  4  2  0
  4  5  1  0
  5  6  2  0
  6  7  1  0
  7  8  2  0
  8  9  1  0
  9 10  1  0
 10 11  2  0
 11 12  1  0
 12 13  2  0
 13 14  1  0
 14 15  2  0
 15 16  1  0
 15 17  1  0
 17 18  1  0
 18 19  1  0
 18 20  1  0
 18 21  1  0
 17 22  2  0
 11 23  1  0
 23 24  2  0
 24 25  1  0
 25 26  1  0
 26 27  1  0
 27 28  1  0
 27 29  1  0
  9 30  2  0
 30 31  1  0
 31  3  1  0
 31  6  1  0
 25 10  1  0
 22 12  1  0
  4 32  1  0
  7 33  1  0
  8 34  1  0
 13 35  1  0
 14 36  1  0
 22 37  1  0
 24 38  1  0
 26 39  1  0
 26 40  1  0
 27 41  1  0
M  END
$$$$
