@<TRIPOS>MOLECULE
*****
 41 44 0 0 0
SMALL
GASTEIGER

@<TRIPOS>ATOM
      1 N          -4.5354    0.1068   -3.3490 N.1     1  UNL1       -0.1892
      2 C          -4.0390    0.8060   -2.5599 C.1     1  UNL1        0.1208
      3 C          -3.4038    1.6574   -1.5845 C.ar    1  UNL1        0.1618
      4 C          -3.7154    2.9968   -1.4058 C.ar    1  UNL1        0.0659
      5 N          -2.9477    3.4756   -0.4312 N.ar    1  UNL1       -0.2333
      6 C          -2.1550    2.4531    0.0071 C.ar    1  UNL1        0.1555
      7 C          -1.1879    2.3732    0.9820 C.ar    1  UNL1       -0.0153
      8 C          -0.5569    1.1664    1.1868 C.ar    1  UNL1       -0.0290
      9 C          -0.8655    0.0424    0.4460 C.ar    1  UNL1        0.1103
     10 C          -0.1854   -1.2106    0.6883 C.ar    1  UNL1        0.0968
     11 C           1.1123   -1.5081    0.4185 C.ar    1  UNL1        0.0982
     12 C           2.1389   -0.6720   -0.1791 C.ar    1  UNL1        0.0032
     13 C           2.5818   -0.9112   -1.4890 C.ar    1  UNL1       -0.0498
     14 C           3.5552   -0.1609   -2.1027 C.ar    1  UNL1       -0.0253
     15 C           4.1484    0.8866   -1.4302 C.ar    1  UNL1        0.1351
     16 F           5.1143    1.6457   -2.0126 F       1  UNL1       -0.2049
     17 C           3.7431    1.1529   -0.1472 C.ar    1  UNL1        0.0905
     18 C           4.3952    2.2916    0.5655 C.3     1  UNL1        0.4201
     19 F           4.1306    3.4222   -0.1911 F       1  UNL1       -0.1658
     20 F           3.8568    2.3995    1.8330 F       1  UNL1       -0.1658
     21 F           5.7612    2.1272    0.6712 F       1  UNL1       -0.1658
     22 C           2.7555    0.3831    0.4614 C.ar    1  UNL1       -0.0381
     23 N           1.3105   -2.7821    0.8161 N.ar    1  UNL1       -0.2351
     24 C           0.1891   -3.2943    1.3235 C.ar    1  UNL1        0.0973
     25 N          -0.7562   -2.3102    1.2460 N.ar    1  UNL1       -0.3229
     26 C          -2.1106   -2.4897    1.6943 C.3     1  UNL1        0.0852
     27 C          -2.9830   -3.0480    0.5690 C.3     1  UNL1        0.2569
     28 F          -2.4576   -4.2793    0.1730 F       1  UNL1       -0.2073
     29 F          -4.2827   -3.2223    1.0079 F       1  UNL1       -0.2073
     30 N          -1.8175    0.1772   -0.4933 N.ar    1  UNL1       -0.1623
     31 N          -2.4314    1.3396   -0.6963 N.ar    1  UNL1       -0.2023
     32 H          -4.4490    3.5567   -1.9543 H       1  UNL1        0.0859
     33 H          -0.9358    3.2455    1.5704 H       1  UNL1        0.0655
     34 H           0.2120    1.0701    1.9592 H       1  UNL1        0.0641
     35 H           2.1023   -1.7454   -2.0098 H       1  UNL1        0.0625
     36 H           3.8879   -0.3578   -3.1162 H       1  UNL1        0.0646
     37 H           2.4750    0.6201    1.4599 H       1  UNL1        0.0630
     38 H           0.0121   -4.2912    1.7304 H       1  UNL1        0.1029
     39 H          -2.5570   -1.5440    2.0838 H       1  UNL1        0.0548
     40 H          -2.1052   -3.2418    2.5071 H       1  UNL1        0.0548
     41 H          -3.0041   -2.3268   -0.2483 H       1  UNL1        0.1037
@<TRIPOS>BOND
     1     1     2    3
     2     2     3    1
     3     3     4   ar
     4     4     5   ar
     5     5     6   ar
     6     6     7   ar
     7     7     8   ar
     8     8     9   ar
     9     9    10    1
    10    10    11   ar
    11    11    12    1
    12    12    13   ar
    13    13    14   ar
    14    14    15   ar
    15    15    16    1
    16    15    17   ar
    17    17    18    1
    18    18    19    1
    19    18    20    1
    20    18    21    1
    21    17    22   ar
    22    11    23   ar
    23    23    24   ar
    24    24    25   ar
    25    25    26    1
    26    26    27    1
    27    27    28    1
    28    27    29    1
    29     9    30   ar
    30    30    31   ar
    31    31     3   ar
    32    31     6   ar
    33    25    10   ar
    34    22    12   ar
    35     4    32    1
    36     7    33    1
    37     8    34    1
    38    13    35    1
    39    14    36    1
    40    22    37    1
    41    24    38    1
    42    26    39    1
    43    26    40    1
    44    27    41    1
