@<TRIPOS>MOLECULE
*****
 80 85 0 0 0
SMALL
GASTEIGER

@<TRIPOS>ATOM
      1 C           4.0362    2.0605   -0.1802 C.3     1  UNL1       -0.0219
      2 C           4.0151    0.6137   -0.4965 C.ar    1  UNL1        0.0464
      3 N           5.1842   -0.0900   -0.4520 N.ar    1  UNL1       -0.2175
      4 C           5.2294   -1.3921   -0.7258 C.ar    1  UNL1        0.2207
      5 O           6.4250   -2.0675   -0.6713 O.3     1  UNL1       -0.4380
      6 C           7.5983   -1.3977   -0.3296 C.ar    1  UNL1        0.1304
      7 C           8.3941   -0.8058   -1.2873 C.ar    1  UNL1       -0.0185
      8 C           9.5463   -0.1487   -0.9456 C.ar    1  UNL1       -0.0443
      9 C           9.9769   -0.0401    0.3667 C.ar    1  UNL1        0.0591
     10 C          11.2127    0.6684    0.7028 C.2     1  UNL1        0.3368
     11 O          11.6167    0.7758    1.8822 O.2     1  UNL1       -0.2451
     12 O          11.9485    1.2328   -0.3244 O.3     1  UNL1       -0.4771
     13 C           9.1854   -0.6296    1.3256 C.ar    1  UNL1       -0.0443
     14 C           8.0300   -1.2881    0.9797 C.ar    1  UNL1       -0.0185
     15 C           4.0856   -2.0581   -1.0620 C.ar    1  UNL1        0.0007
     16 C           2.8758   -1.3544   -1.1133 C.ar    1  UNL1       -0.0506
     17 C           2.8299   -0.0057   -0.8296 C.ar    1  UNL1       -0.0121
     18 C           1.5961    0.7752   -0.8697 C.3     1  UNL1        0.0257
     19 N           1.0606    1.0830    0.4282 N.3     1  UNL1       -0.2980
     20 C          -0.1506    1.8649    0.3270 C.3     1  UNL1        0.0009
     21 C          -1.1045    1.5880    1.4662 C.3     1  UNL1       -0.0213
     22 C          -1.4825    0.1424    1.5611 C.3     1  UNL1        0.0305
     23 N          -2.7397   -0.1688    0.9456 N.am    1  UNL1       -0.2738
     24 C          -3.8426   -0.7670    1.6265 C.2     1  UNL1        0.3059
     25 O          -3.9326   -0.9082    2.8942 O.2     1  UNL1       -0.2524
     26 N          -4.8326   -1.1857    0.6832 N.am    1  UNL1       -0.2802
     27 C          -6.1522   -1.7694    0.9789 C.3     1  UNL1        0.0317
     28 C          -7.2244   -0.8619    0.5028 C.3     1  UNL1       -0.0106
     29 C          -7.9195   -1.3235   -0.7632 C.3     1  UNL1        0.0493
     30 O          -8.3773   -2.6280   -0.4850 O.3     1  UNL1       -0.3796
     31 C          -7.2533   -3.4415   -0.5543 C.3     1  UNL1        0.0493
     32 C          -6.2350   -3.1786    0.4815 C.3     1  UNL1       -0.0106
     33 C          -4.2872   -0.9269   -0.6336 C.3     1  UNL1        0.0393
     34 C          -3.1439    0.0397   -0.4308 C.3     1  UNL1        0.0687
     35 C          -3.6774    1.4006   -0.6833 C.ar    1  UNL1       -0.0241
     36 C          -3.3018    2.1496   -1.7875 C.ar    1  UNL1       -0.0567
     37 C          -3.8386    3.4086   -1.9606 C.ar    1  UNL1       -0.0601
     38 C          -4.7394    3.9407   -1.0630 C.ar    1  UNL1       -0.0434
     39 C          -5.1139    3.2005    0.0332 C.ar    1  UNL1        0.0413
     40 CL         -6.2504    3.8442    1.1866 Cl      1  UNL1       -0.0835
     41 C          -4.5744    1.9359    0.2066 C.ar    1  UNL1       -0.0384
     42 C          -0.4198   -0.7473    0.9014 C.3     1  UNL1       -0.0213
     43 C           0.9186   -0.0881    1.2318 C.3     1  UNL1        0.0009
     44 H           5.0374    2.3583    0.1863 H       1  UNL1        0.0293
     45 H           3.7876    2.6386   -1.0951 H       1  UNL1        0.0293
     46 H           3.2479    2.2351    0.5780 H       1  UNL1        0.0293
     47 H           8.0741   -0.8795   -2.3243 H       1  UNL1        0.0654
     48 H          10.1730    0.3170   -1.6977 H       1  UNL1        0.0627
     49 H          12.5866    1.9939   -0.0494 H       1  UNL1        0.2954
     50 H           9.4947   -0.5615    2.3551 H       1  UNL1        0.0627
     51 H           7.3903   -1.7622    1.7353 H       1  UNL1        0.0654
     52 H           4.1503   -3.1066   -1.2773 H       1  UNL1        0.0671
     53 H           1.9682   -1.8787   -1.3789 H       1  UNL1        0.0623
     54 H           0.8083    0.2087   -1.4420 H       1  UNL1        0.0476
     55 H           1.7033    1.7407   -1.4385 H       1  UNL1        0.0476
     56 H           0.1463    2.9313    0.4056 H       1  UNL1        0.0427
     57 H          -0.5939    1.7014   -0.6603 H       1  UNL1        0.0427
     58 H          -0.5552    1.9088    2.3991 H       1  UNL1        0.0295
     59 H          -1.9525    2.2809    1.3733 H       1  UNL1        0.0295
     60 H          -1.4594   -0.1390    2.6432 H       1  UNL1        0.0502
     61 H          -6.2145   -1.8136    2.0891 H       1  UNL1        0.0502
     62 H          -6.8651    0.1808    0.3766 H       1  UNL1        0.0305
     63 H          -8.0531   -0.7736    1.2680 H       1  UNL1        0.0305
     64 H          -7.2329   -1.4322   -1.6212 H       1  UNL1        0.0560
     65 H          -8.7450   -0.6252   -0.9575 H       1  UNL1        0.0560
     66 H          -7.6408   -4.4948   -0.4853 H       1  UNL1        0.0560
     67 H          -6.8444   -3.3361   -1.5836 H       1  UNL1        0.0560
     68 H          -6.4085   -3.9168    1.3192 H       1  UNL1        0.0305
     69 H          -5.2361   -3.4601    0.0760 H       1  UNL1        0.0305
     70 H          -5.0275   -0.5396   -1.3478 H       1  UNL1        0.0487
     71 H          -3.9416   -1.9053   -1.0287 H       1  UNL1        0.0487
     72 H          -2.3304   -0.2224   -1.1422 H       1  UNL1        0.0567
     73 H          -2.5965    1.7102   -2.4721 H       1  UNL1        0.0621
     74 H          -3.5512    4.0108   -2.8281 H       1  UNL1        0.0618
     75 H          -5.1341    4.9407   -1.2452 H       1  UNL1        0.0632
     76 H          -4.9030    1.3906    1.0902 H       1  UNL1        0.0635
     77 H          -0.4316   -1.7427    1.3684 H       1  UNL1        0.0295
     78 H          -0.6166   -0.7417   -0.1695 H       1  UNL1        0.0295
     79 H           0.9012    0.1690    2.3102 H       1  UNL1        0.0427
     80 H           1.6925   -0.8368    0.9859 H       1  UNL1        0.0427
@<TRIPOS>BOND
     1     1     2    1
     2     2     3   ar
     3     3     4   ar
     4     4     5    1
     5     5     6    1
     6     6     7   ar
     7     7     8   ar
     8     8     9   ar
     9     9    10    1
    10    10    11    2
    11    10    12    1
    12     9    13   ar
    13    13    14   ar
    14     4    15   ar
    15    15    16   ar
    16    16    17   ar
    17    17    18    1
    18    18    19    1
    19    19    20    1
    20    20    21    1
    21    21    22    1
    22    22    23    1
    23    23    24   am
    24    24    25    2
    25    24    26   am
    26    26    27    1
    27    27    28    1
    28    28    29    1
    29    29    30    1
    30    30    31    1
    31    31    32    1
    32    26    33    1
    33    33    34    1
    34    34    35    1
    35    35    36   ar
    36    36    37   ar
    37    37    38   ar
    38    38    39   ar
    39    39    40    1
    40    39    41   ar
    41    22    42    1
    42    42    43    1
    43    17     2   ar
    44    43    19    1
    45    14     6   ar
    46    34    23    1
    47    41    35   ar
    48    32    27    1
    49     1    44    1
    50     1    45    1
    51     1    46    1
    52     7    47    1
    53     8    48    1
    54    12    49    1
    55    13    50    1
    56    14    51    1
    57    15    52    1
    58    16    53    1
    59    18    54    1
    60    18    55    1
    61    20    56    1
    62    20    57    1
    63    21    58    1
    64    21    59    1
    65    22    60    1
    66    27    61    1
    67    28    62    1
    68    28    63    1
    69    29    64    1
    70    29    65    1
    71    31    66    1
    72    31    67    1
    73    32    68    1
    74    32    69    1
    75    33    70    1
    76    33    71    1
    77    34    72    1
    78    36    73    1
    79    37    74    1
    80    38    75    1
    81    41    76    1
    82    42    77    1
    83    42    78    1
    84    43    79    1
    85    43    80    1
