@<TRIPOS>MOLECULE
*****
 71 75 0 0 0
SMALL
GASTEIGER

@<TRIPOS>ATOM
      1 O          -1.7762   -0.2933    1.1296 O.2     1  UNL1       -0.2738
      2 C          -1.4681    0.0291   -0.0656 C.2     1  UNL1        0.2343
      3 C          -0.0543    0.1506   -0.4892 C.3     1  UNL1        0.0861
      4 N           0.8118   -0.1406    0.6177 N.pl3   1  UNL1       -0.3354
      5 C           2.2326   -0.1078    0.5212 C.ar    1  UNL1        0.0275
      6 C           2.8277    0.2115   -0.6680 C.ar    1  UNL1       -0.0403
      7 C           4.1951    0.2518   -0.7944 C.ar    1  UNL1       -0.0522
      8 C           4.9517   -0.0443    0.3324 C.ar    1  UNL1       -0.0163
      9 C           6.4064   -0.0226    0.2776 C.ar    1  UNL1        0.0004
     10 C           7.0363    0.8638   -0.5723 C.ar    1  UNL1       -0.0493
     11 C           8.4188    0.8639   -0.6042 C.ar    1  UNL1       -0.0209
     12 C           9.1389    0.0011    0.1921 C.ar    1  UNL1        0.1249
     13 N          10.5555    0.0365    0.1263 N.am    1  UNL1       -0.2702
     14 C          11.3149   -0.7607   -0.7765 C.2     1  UNL1        0.2213
     15 O          10.6515   -1.5222   -1.5372 O.2     1  UNL1       -0.2751
     16 C          12.7986   -0.6897   -0.8097 C.3     1  UNL1        0.0360
     17 C          13.5774   -0.4179    0.4149 C.3     1  UNL1       -0.0412
     18 C          13.4889    0.6291   -0.6504 C.3     1  UNL1       -0.0412
     19 N           8.5215   -0.8606    1.0184 N.ar    1  UNL1       -0.2395
     20 C           7.1594   -0.8540    1.0437 C.ar    1  UNL1        0.0374
     21 C           4.3664   -0.3645    1.5249 C.ar    1  UNL1       -0.0522
     22 C           2.9899   -0.3996    1.6317 C.ar    1  UNL1       -0.0403
     23 N          -2.5601    0.2585   -0.9430 N.am    1  UNL1       -0.2842
     24 C          -3.9177    0.1363   -0.5155 C.ar    1  UNL1        0.0340
     25 C          -4.6207    1.1973    0.0090 C.ar    1  UNL1       -0.0402
     26 C          -5.9240    1.0756    0.4183 C.ar    1  UNL1       -0.0551
     27 C          -6.5708   -0.1270    0.3136 C.ar    1  UNL1       -0.0216
     28 C          -7.9822   -0.2568    0.7563 C.3     1  UNL1        0.0247
     29 N          -8.9125   -0.2818   -0.3241 N.3     1  UNL1       -0.2957
     30 C          -8.8712    0.9142   -1.1335 C.3     1  UNL1        0.0118
     31 C         -10.0739    1.7798   -0.8998 C.3     1  UNL1        0.0087
     32 N         -10.5362    1.7389    0.4709 N.3     1  UNL1       -0.3136
     33 C         -10.9100    0.4073    0.8854 C.3     1  UNL1        0.0087
     34 C         -10.2387   -0.6617    0.0574 C.3     1  UNL1        0.0118
     35 C          -5.9081   -1.2146   -0.2044 C.ar    1  UNL1        0.0609
     36 C          -6.5667   -2.5501   -0.3406 C.3     1  UNL1        0.4178
     37 F          -7.6444   -2.4129   -1.1605 F       1  UNL1       -0.1659
     38 F          -6.9120   -3.0682    0.9107 F       1  UNL1       -0.1659
     39 F          -5.6361   -3.4292   -0.8548 F       1  UNL1       -0.1659
     40 C          -4.5998   -1.0550   -0.6053 C.ar    1  UNL1       -0.0285
     41 H           0.1951   -0.6060   -1.2903 H       1  UNL1        0.0557
     42 H           0.1542    1.1327   -0.9591 H       1  UNL1        0.0557
     43 H           0.3547   -0.3885    1.5378 H       1  UNL1        0.1466
     44 H           2.2217    0.4355   -1.5209 H       1  UNL1        0.0636
     45 H           4.6988    0.5022   -1.7257 H       1  UNL1        0.0624
     46 H           6.4624    1.5461   -1.2020 H       1  UNL1        0.0625
     47 H           8.8989    1.5573   -1.2688 H       1  UNL1        0.0652
     48 H          11.0424    0.6882    0.7837 H       1  UNL1        0.1562
     49 H          13.2495   -1.3661   -1.5630 H       1  UNL1        0.0394
     50 H          13.0593   -0.1883    1.3869 H       1  UNL1        0.0273
     51 H          14.5730   -0.8839    0.5779 H       1  UNL1        0.0273
     52 H          12.8273    1.5094   -0.4753 H       1  UNL1        0.0273
     53 H          14.3921    0.8744   -1.2412 H       1  UNL1        0.0273
     54 H           6.6360   -1.5455    1.7078 H       1  UNL1        0.0836
     55 H           4.9333   -0.6037    2.4347 H       1  UNL1        0.0624
     56 H           2.5351   -0.6533    2.5774 H       1  UNL1        0.0636
     57 H          -2.3931    0.5261   -1.9365 H       1  UNL1        0.1549
     58 H          -4.0676    2.1379    0.0750 H       1  UNL1        0.0636
     59 H          -6.4186    1.9650    0.8258 H       1  UNL1        0.0621
     60 H          -8.1331   -1.1819    1.3560 H       1  UNL1        0.0476
     61 H          -8.1811    0.5811    1.4772 H       1  UNL1        0.0476
     62 H          -7.9702    1.5111   -1.0129 H       1  UNL1        0.0439
     63 H          -8.9151    0.5745   -2.2012 H       1  UNL1        0.0439
     64 H         -10.9070    1.5497   -1.6271 H       1  UNL1        0.0437
     65 H          -9.7917    2.8299   -1.1212 H       1  UNL1        0.0437
     66 H         -11.3683    2.3664    0.5354 H       1  UNL1        0.1220
     67 H         -10.7245    0.2400    1.9748 H       1  UNL1        0.0437
     68 H         -12.0052    0.3015    0.7390 H       1  UNL1        0.0437
     69 H         -10.1534   -1.5620    0.7047 H       1  UNL1        0.0439
     70 H         -10.8766   -0.9400   -0.7919 H       1  UNL1        0.0439
     71 H          -4.0877   -1.9203   -1.0122 H       1  UNL1        0.0642
@<TRIPOS>BOND
     1     1     2    2
     2     2     3    1
     3     3     4    1
     4     4     5    1
     5     5     6   ar
     6     6     7   ar
     7     7     8   ar
     8     8     9    1
     9     9    10   ar
    10    10    11   ar
    11    11    12   ar
    12    12    13    1
    13    13    14   am
    14    14    15    2
    15    14    16    1
    16    16    17    1
    17    17    18    1
    18    12    19   ar
    19    19    20   ar
    20     8    21   ar
    21    21    22   ar
    22     2    23   am
    23    23    24    1
    24    24    25   ar
    25    25    26   ar
    26    26    27   ar
    27    27    28    1
    28    28    29    1
    29    29    30    1
    30    30    31    1
    31    31    32    1
    32    32    33    1
    33    33    34    1
    34    27    35   ar
    35    35    36    1
    36    36    37    1
    37    36    38    1
    38    36    39    1
    39    35    40   ar
    40    22     5   ar
    41    40    24   ar
    42    20     9   ar
    43    34    29    1
    44    18    16    1
    45     3    41    1
    46     3    42    1
    47     4    43    1
    48     6    44    1
    49     7    45    1
    50    10    46    1
    51    11    47    1
    52    13    48    1
    53    16    49    1
    54    17    50    1
    55    17    51    1
    56    18    52    1
    57    18    53    1
    58    20    54    1
    59    21    55    1
    60    22    56    1
    61    23    57    1
    62    25    58    1
    63    26    59    1
    64    28    60    1
    65    28    61    1
    66    30    62    1
    67    30    63    1
    68    31    64    1
    69    31    65    1
    70    32    66    1
    71    33    67    1
    72    33    68    1
    73    34    69    1
    74    34    70    1
    75    40    71    1
