@<TRIPOS>MOLECULE
*****
 41 43 0 0 0
SMALL
GASTEIGER

@<TRIPOS>ATOM
      1 C           6.9060    0.8842   -0.1631 C.3     1  UNL1        0.0788
      2 O           5.7980    1.6222   -0.6482 O.3     1  UNL1       -0.4951
      3 C           4.5050    1.1576   -0.5912 C.ar    1  UNL1        0.1204
      4 C           3.4810    1.9098   -1.0736 C.ar    1  UNL1       -0.0196
      5 C           2.1802    1.4307   -1.0106 C.ar    1  UNL1       -0.0536
      6 C           1.8631    0.2019   -0.4718 C.ar    1  UNL1       -0.0304
      7 C           0.4658   -0.2260   -0.4438 C.3     1  UNL1        0.0218
      8 N          -0.1558   -0.1261    0.8582 N.3     1  UNL1       -0.3087
      9 C          -1.5461   -0.5807    0.6937 C.3     1  UNL1        0.0154
     10 C          -2.3689   -0.5547    1.9106 C.3     1  UNL1       -0.0287
     11 C          -2.6406    0.4007    0.7929 C.3     1  UNL1        0.0010
     12 C          -3.9159    0.1572    0.0784 C.ar    1  UNL1       -0.0428
     13 C          -4.2832   -1.1361   -0.3091 C.ar    1  UNL1       -0.0583
     14 C          -5.4680   -1.3668   -0.9717 C.ar    1  UNL1       -0.0615
     15 C          -6.3345   -0.3642   -1.2818 C.ar    1  UNL1       -0.0617
     16 C          -5.9882    0.9318   -0.9049 C.ar    1  UNL1       -0.0615
     17 C          -4.8039    1.1643   -0.2423 C.ar    1  UNL1       -0.0583
     18 C           2.9129   -0.5581    0.0175 C.ar    1  UNL1       -0.0426
     19 C           2.6314   -1.8886    0.6089 C.3     1  UNL1       -0.0393
     20 C           4.2039   -0.0739   -0.0490 C.ar    1  UNL1       -0.0167
     21 H           7.0173   -0.0549   -0.7469 H       1  UNL1        0.0660
     22 H           6.6991    0.6128    0.8852 H       1  UNL1        0.0660
     23 H           7.8003    1.5160   -0.1935 H       1  UNL1        0.0660
     24 H           3.7142    2.8873   -1.5045 H       1  UNL1        0.0654
     25 H           1.4179    2.0859   -1.4149 H       1  UNL1        0.0622
     26 H           0.3282   -1.2718   -0.8373 H       1  UNL1        0.0474
     27 H          -0.1174    0.4082   -1.1393 H       1  UNL1        0.0474
     28 H          -0.0973    0.8120    1.2663 H       1  UNL1        0.1225
     29 H          -1.6923   -1.4034   -0.0390 H       1  UNL1        0.0466
     30 H          -2.0006   -0.1171    2.8543 H       1  UNL1        0.0287
     31 H          -3.0282   -1.4352    2.0695 H       1  UNL1        0.0287
     32 H          -2.4711    1.4830    1.0124 H       1  UNL1        0.0364
     33 H          -3.6530   -1.9876   -0.1023 H       1  UNL1        0.0620
     34 H          -5.7206   -2.3806   -1.2567 H       1  UNL1        0.0618
     35 H          -7.2554   -0.5628   -1.8001 H       1  UNL1        0.0618
     36 H          -6.6754    1.7156   -1.1520 H       1  UNL1        0.0618
     37 H          -4.5594    2.1815    0.0383 H       1  UNL1        0.0620
     38 H           2.1105   -2.5575   -0.1165 H       1  UNL1        0.0278
     39 H           3.6092   -2.4120    0.8164 H       1  UNL1        0.0278
     40 H           2.1233   -1.8362    1.5856 H       1  UNL1        0.0278
     41 H           5.0084   -0.6684    0.3318 H       1  UNL1        0.0657
@<TRIPOS>BOND
     1     1     2    1
     2     2     3    1
     3     3     4   ar
     4     4     5   ar
     5     5     6   ar
     6     6     7    1
     7     7     8    1
     8     8     9    1
     9     9    10    1
    10    10    11    1
    11    11    12    1
    12    12    13   ar
    13    13    14   ar
    14    14    15   ar
    15    15    16   ar
    16    16    17   ar
    17     6    18   ar
    18    18    19    1
    19    18    20   ar
    20    20     3   ar
    21    11     9    1
    22    17    12   ar
    23     1    21    1
    24     1    22    1
    25     1    23    1
    26     4    24    1
    27     5    25    1
    28     7    26    1
    29     7    27    1
    30     8    28    1
    31     9    29    1
    32    10    30    1
    33    10    31    1
    34    11    32    1
    35    13    33    1
    36    14    34    1
    37    15    35    1
    38    16    36    1
    39    17    37    1
    40    19    38    1
    41    19    39    1
    42    19    40    1
    43    20    41    1
