
     RDKit          3D

 41 43  0  0  0  0  0  0  0  0999 V2000
    6.9060    0.8842   -0.1631 C   0  0  0  0  0  0  0  0  0  0  0  0
    5.7980    1.6222   -0.6482 O   0  0  0  0  0  0  0  0  0  0  0  0
    4.5050    1.1576   -0.5912 C   0  0  0  0  0  0  0  0  0  0  0  0
    3.4810    1.9098   -1.0736 C   0  0  0  0  0  0  0  0  0  0  0  0
    2.1802    1.4307   -1.0106 C   0  0  0  0  0  0  0  0  0  0  0  0
    1.8631    0.2019   -0.4718 C   0  0  0  0  0  0  0  0  0  0  0  0
    0.4658   -0.2260   -0.4438 C   0  0  0  0  0  0  0  0  0  0  0  0
   -0.1558   -0.1261    0.8582 N   0  0  0  0  0  0  0  0  0  0  0  0
   -1.5461   -0.5807    0.6937 C   0  0  1  0  0  0  0  0  0  0  0  0
   -2.3689   -0.5547    1.9106 C   0  0  0  0  0  0  0  0  0  0  0  0
   -2.6406    0.4007    0.7929 C   0  0  0  0  0  0  0  0  0  0  0  0
   -3.9159    0.1572    0.0784 C   0  0  0  0  0  0  0  0  0  0  0  0
   -4.2832   -1.1361   -0.3091 C   0  0  0  0  0  0  0  0  0  0  0  0
   -5.4680   -1.3668   -0.9717 C   0  0  0  0  0  0  0  0  0  0  0  0
   -6.3345   -0.3642   -1.2818 C   0  0  0  0  0  0  0  0  0  0  0  0
   -5.9882    0.9318   -0.9049 C   0  0  0  0  0  0  0  0  0  0  0  0
   -4.8039    1.1643   -0.2423 C   0  0  0  0  0  0  0  0  0  0  0  0
    2.9129   -0.5581    0.0175 C   0  0  0  0  0  0  0  0  0  0  0  0
    2.6314   -1.8886    0.6089 C   0  0  0  0  0  0  0  0  0  0  0  0
    4.2039   -0.0739   -0.0490 C   0  0  0  0  0  0  0  0  0  0  0  0
    7.0173   -0.0549   -0.7469 H   0  0  0  0  0  0  0  0  0  0  0  0
    6.6991    0.6128    0.8852 H   0  0  0  0  0  0  0  0  0  0  0  0
    7.8003    1.5160   -0.1935 H   0  0  0  0  0  0  0  0  0  0  0  0
    3.7142    2.8873   -1.5045 H   0  0  0  0  0  0  0  0  0  0  0  0
    1.4179    2.0859   -1.4149 H   0  0  0  0  0  0  0  0  0  0  0  0
    0.3282   -1.2718   -0.8373 H   0  0  0  0  0  0  0  0  0  0  0  0
   -0.1174    0.4082   -1.1393 H   0  0  0  0  0  0  0  0  0  0  0  0
   -0.0973    0.8120    1.2663 H   0  0  0  0  0  0  0  0  0  0  0  0
   -1.6923   -1.4034   -0.0390 H   0  0  0  0  0  0  0  0  0  0  0  0
   -2.0006   -0.1171    2.8543 H   0  0  0  0  0  0  0  0  0  0  0  0
   -3.0282   -1.4352    2.0695 H   0  0  0  0  0  0  0  0  0  0  0  0
   -2.4711    1.4830    1.0124 H   0  0  0  0  0  0  0  0  0  0  0  0
   -3.6530   -1.9876   -0.1023 H   0  0  0  0  0  0  0  0  0  0  0  0
   -5.7206   -2.3806   -1.2567 H   0  0  0  0  0  0  0  0  0  0  0  0
   -7.2554   -0.5628   -1.8001 H   0  0  0  0  0  0  0  0  0  0  0  0
   -6.6754    1.7156   -1.1520 H   0  0  0  0  0  0  0  0  0  0  0  0
   -4.5594    2.1815    0.0383 H   0  0  0  0  0  0  0  0  0  0  0  0
    2.1105   -2.5575   -0.1165 H   0  0  0  0  0  0  0  0  0  0  0  0
    3.6092   -2.4120    0.8164 H   0  0  0  0  0  0  0  0  0  0  0  0
    2.1233   -1.8362    1.5856 H   0  0  0  0  0  0  0  0  0  0  0  0
    5.0084   -0.6684    0.3318 H   0  0  0  0  0  0  0  0  0  0  0  0
  1  2  1  0
  2  3  1  0
  3  4  2  0
  4  5  1  0
  5  6  2  0
  6  7  1  0
  7  8  1  0
  8  9  1  0
  9 10  1  0
 10 11  1  0
 11 12  1  0
 12 13  2  0
 13 14  1  0
 14 15  2  0
 15 16  1  0
 16 17  2  0
  6 18  1  0
 18 19  1  0
 18 20  2  0
 20  3  1  0
 11  9  1  0
 17 12  1  0
  1 21  1  0
  1 22  1  0
  1 23  1  0
  4 24  1  0
  5 25  1  0
  7 26  1  0
  7 27  1  0
  8 28  1  0
  9 29  1  6
 10 30  1  0
 10 31  1  0
 11 32  1  0
 13 33  1  0
 14 34  1  0
 15 35  1  0
 16 36  1  0
 17 37  1  0
 19 38  1  0
 19 39  1  0
 19 40  1  0
 20 41  1  0
M  END
$$$$
