@<TRIPOS>MOLECULE
*****
 49 52 0 0 0
SMALL
GASTEIGER

@<TRIPOS>ATOM
      1 C          -7.1307   -0.9510   -1.3175 C.3     1  UNL1        0.0001
      2 N          -5.7184   -0.5719   -1.2106 N.am    1  UNL1       -0.3172
      3 C          -5.3194    0.6314   -0.5721 C.2     1  UNL1        0.2296
      4 O          -6.2880    1.3341   -0.1119 O.2     1  UNL1       -0.2743
      5 C          -3.9347    1.1006   -0.4118 C.3     1  UNL1        0.1052
      6 C          -3.0287    1.3707   -1.5543 C.3     1  UNL1       -0.0220
      7 C          -2.7922    0.2166   -0.6301 C.3     1  UNL1        0.0134
      8 C          -1.7533    0.1993    0.4282 C.3     1  UNL1        0.0935
      9 C          -2.2659   -0.4311    1.7247 C.3     1  UNL1       -0.0351
     10 C          -0.6051   -0.6689    0.0375 C.ar    1  UNL1        0.0158
     11 C           0.6766   -0.1798    0.0043 C.ar    1  UNL1       -0.0463
     12 C           1.7711   -0.9513   -0.3533 C.ar    1  UNL1       -0.0217
     13 C           3.0989   -0.3465   -0.3598 C.2     1  UNL1       -0.0172
     14 C           4.1983   -0.9826    0.0335 C.2     1  UNL1        0.1492
     15 F           4.0894   -2.2529    0.4625 F       1  UNL1       -0.2032
     16 C           5.4990   -0.3282    0.0050 C.ar    1  UNL1        0.0990
     17 C           6.6051   -1.0352    0.4265 C.ar    1  UNL1       -0.0324
     18 C           7.8826   -0.5014    0.4372 C.ar    1  UNL1       -0.0442
     19 C           8.0314    0.8085   -0.0011 C.ar    1  UNL1        0.0360
     20 BR          9.7438    1.6326   -0.0237 Br      1  UNL1       -0.0487
     21 C           6.8958    1.4758   -0.4131 C.ar    1  UNL1        0.0423
     22 N           5.6715    0.9323   -0.4122 N.ar    1  UNL1       -0.2516
     23 C           1.5584   -2.2719   -0.6912 C.ar    1  UNL1       -0.0518
     24 C           0.2890   -2.7916   -0.6681 C.ar    1  UNL1       -0.0255
     25 C          -0.7906   -1.9908   -0.3039 C.ar    1  UNL1        0.1289
     26 F          -2.0031   -2.5885   -0.3040 F       1  UNL1       -0.2051
     27 N          -1.2130    1.4925    0.7197 N.2     1  UNL1       -0.2521
     28 C          -1.9025    2.5289    1.0035 C.2     1  UNL1        0.1485
     29 N          -1.2937    3.7613    1.2797 N.pl3   1  UNL1       -0.3380
     30 S          -3.6820    2.2639    0.9864 S.3     1  UNL1       -0.0746
     31 H          -7.7862   -0.0932   -1.4676 H       1  UNL1        0.0426
     32 H          -7.1854   -1.7209   -2.1124 H       1  UNL1        0.0426
     33 H          -7.3844   -1.5000   -0.3631 H       1  UNL1        0.0426
     34 H          -4.9625   -1.1757   -1.6010 H       1  UNL1        0.1484
     35 H          -3.4476    1.2354   -2.5498 H       1  UNL1        0.0287
     36 H          -2.3063    2.2213   -1.5116 H       1  UNL1        0.0287
     37 H          -3.0485   -0.7617   -1.1489 H       1  UNL1        0.0346
     38 H          -2.0673   -1.5013    1.7457 H       1  UNL1        0.0256
     39 H          -3.3519   -0.2936    1.8378 H       1  UNL1        0.0256
     40 H          -1.7002    0.0392    2.5451 H       1  UNL1        0.0256
     41 H           0.8736    0.8504    0.2633 H       1  UNL1        0.0628
     42 H           3.2598    0.6849   -0.6967 H       1  UNL1        0.0653
     43 H           6.5252   -2.0628    0.7762 H       1  UNL1        0.0640
     44 H           8.7480   -1.0588    0.7679 H       1  UNL1        0.0630
     45 H           7.0274    2.4958   -0.7518 H       1  UNL1        0.0841
     46 H           2.4294   -2.8808   -0.9770 H       1  UNL1        0.0624
     47 H           0.1703   -3.8328   -0.9406 H       1  UNL1        0.0646
     48 H          -0.8842    3.8882    2.2490 H       1  UNL1        0.1442
     49 H          -1.1990    4.5618    0.6436 H       1  UNL1        0.1442
@<TRIPOS>BOND
     1     1     2    1
     2     2     3   am
     3     3     4    2
     4     5     3    1
     5     5     6    1
     6     6     7    1
     7     7     8    1
     8     8     9    1
     9     8    10    1
    10    10    11   ar
    11    11    12   ar
    12    12    13    1
    13    13    14    2
    14    14    15    1
    15    14    16    1
    16    16    17   ar
    17    17    18   ar
    18    18    19   ar
    19    19    20    1
    20    19    21   ar
    21    21    22   ar
    22    12    23   ar
    23    23    24   ar
    24    24    25   ar
    25    25    26    1
    26     8    27    1
    27    27    28    2
    28    28    29    1
    29    28    30    1
    30     7     5    1
    31    25    10   ar
    32    30     5    1
    33    22    16   ar
    34     1    31    1
    35     1    32    1
    36     1    33    1
    37     2    34    1
    38     6    35    1
    39     6    36    1
    40     7    37    1
    41     9    38    1
    42     9    39    1
    43     9    40    1
    44    11    41    1
    45    13    42    1
    46    17    43    1
    47    18    44    1
    48    21    45    1
    49    23    46    1
    50    24    47    1
    51    29    48    1
    52    29    49    1
