
     RDKit          3D

 49 52  0  0  0  0  0  0  0  0999 V2000
   -7.1307   -0.9510   -1.3175 C   0  0  0  0  0  0  0  0  0  0  0  0
   -5.7184   -0.5719   -1.2106 N   0  0  0  0  0  0  0  0  0  0  0  0
   -5.3194    0.6314   -0.5721 C   0  0  0  0  0  0  0  0  0  0  0  0
   -6.2880    1.3341   -0.1119 O   0  0  0  0  0  0  0  0  0  0  0  0
   -3.9347    1.1006   -0.4118 C   0  0  2  0  0  0  0  0  0  0  0  0
   -3.0287    1.3707   -1.5543 C   0  0  0  0  0  0  0  0  0  0  0  0
   -2.7922    0.2166   -0.6301 C   0  0  1  0  0  0  0  0  0  0  0  0
   -1.7533    0.1993    0.4282 C   0  0  1  0  0  0  0  0  0  0  0  0
   -2.2659   -0.4311    1.7247 C   0  0  0  0  0  0  0  0  0  0  0  0
   -0.6051   -0.6689    0.0375 C   0  0  0  0  0  0  0  0  0  0  0  0
    0.6766   -0.1798    0.0043 C   0  0  0  0  0  0  0  0  0  0  0  0
    1.7711   -0.9513   -0.3533 C   0  0  0  0  0  0  0  0  0  0  0  0
    3.0989   -0.3465   -0.3598 C   0  0  0  0  0  0  0  0  0  0  0  0
    4.1983   -0.9826    0.0335 C   0  0  0  0  0  0  0  0  0  0  0  0
    4.0894   -2.2529    0.4625 F   0  0  0  0  0  0  0  0  0  0  0  0
    5.4990   -0.3282    0.0050 C   0  0  0  0  0  0  0  0  0  0  0  0
    6.6051   -1.0352    0.4265 C   0  0  0  0  0  0  0  0  0  0  0  0
    7.8826   -0.5014    0.4372 C   0  0  0  0  0  0  0  0  0  0  0  0
    8.0314    0.8085   -0.0011 C   0  0  0  0  0  0  0  0  0  0  0  0
    9.7438    1.6326   -0.0237 Br  0  0  0  0  0  0  0  0  0  0  0  0
    6.8958    1.4758   -0.4131 C   0  0  0  0  0  0  0  0  0  0  0  0
    5.6715    0.9323   -0.4122 N   0  0  0  0  0  0  0  0  0  0  0  0
    1.5584   -2.2719   -0.6912 C   0  0  0  0  0  0  0  0  0  0  0  0
    0.2890   -2.7916   -0.6681 C   0  0  0  0  0  0  0  0  0  0  0  0
   -0.7906   -1.9908   -0.3039 C   0  0  0  0  0  0  0  0  0  0  0  0
   -2.0031   -2.5885   -0.3040 F   0  0  0  0  0  0  0  0  0  0  0  0
   -1.2130    1.4925    0.7197 N   0  0  0  0  0  0  0  0  0  0  0  0
   -1.9025    2.5289    1.0035 C   0  0  0  0  0  0  0  0  0  0  0  0
   -1.2937    3.7613    1.2797 N   0  0  0  0  0  0  0  0  0  0  0  0
   -3.6820    2.2639    0.9864 S   0  0  0  0  0  0  0  0  0  0  0  0
   -7.7862   -0.0932   -1.4676 H   0  0  0  0  0  0  0  0  0  0  0  0
   -7.1854   -1.7209   -2.1124 H   0  0  0  0  0  0  0  0  0  0  0  0
   -7.3844   -1.5000   -0.3631 H   0  0  0  0  0  0  0  0  0  0  0  0
   -4.9625   -1.1757   -1.6010 H   0  0  0  0  0  0  0  0  0  0  0  0
   -3.4476    1.2354   -2.5498 H   0  0  0  0  0  0  0  0  0  0  0  0
   -2.3063    2.2213   -1.5116 H   0  0  0  0  0  0  0  0  0  0  0  0
   -3.0485   -0.7617   -1.1489 H   0  0  0  0  0  0  0  0  0  0  0  0
   -2.0673   -1.5013    1.7457 H   0  0  0  0  0  0  0  0  0  0  0  0
   -3.3519   -0.2936    1.8378 H   0  0  0  0  0  0  0  0  0  0  0  0
   -1.7002    0.0392    2.5451 H   0  0  0  0  0  0  0  0  0  0  0  0
    0.8736    0.8504    0.2633 H   0  0  0  0  0  0  0  0  0  0  0  0
    3.2598    0.6849   -0.6967 H   0  0  0  0  0  0  0  0  0  0  0  0
    6.5252   -2.0628    0.7762 H   0  0  0  0  0  0  0  0  0  0  0  0
    8.7480   -1.0588    0.7679 H   0  0  0  0  0  0  0  0  0  0  0  0
    7.0274    2.4958   -0.7518 H   0  0  0  0  0  0  0  0  0  0  0  0
    2.4294   -2.8808   -0.9770 H   0  0  0  0  0  0  0  0  0  0  0  0
    0.1703   -3.8328   -0.9406 H   0  0  0  0  0  0  0  0  0  0  0  0
   -0.8842    3.8882    2.2490 H   0  0  0  0  0  0  0  0  0  0  0  0
   -1.1990    4.5618    0.6436 H   0  0  0  0  0  0  0  0  0  0  0  0
  1  2  1  0
  2  3  1  0
  3  4  2  0
  5  3  1  6
  5  6  1  0
  6  7  1  0
  7  8  1  0
  8  9  1  1
  8 10  1  0
 10 11  2  0
 11 12  1  0
 12 13  1  0
 13 14  2  0
 14 15  1  0
 14 16  1  0
 16 17  2  0
 17 18  1  0
 18 19  2  0
 19 20  1  0
 19 21  1  0
 21 22  2  0
 12 23  2  0
 23 24  1  0
 24 25  2  0
 25 26  1  0
  8 27  1  0
 27 28  2  0
 28 29  1  0
 28 30  1  0
  7  5  1  0
 25 10  1  0
 30  5  1  0
 22 16  1  0
  1 31  1  0
  1 32  1  0
  1 33  1  0
  2 34  1  0
  6 35  1  0
  6 36  1  0
  7 37  1  6
  9 38  1  0
  9 39  1  0
  9 40  1  0
 11 41  1  0
 13 42  1  0
 17 43  1  0
 18 44  1  0
 21 45  1  0
 23 46  1  0
 24 47  1  0
 29 48  1  0
 29 49  1  0
M  END
$$$$
