@<TRIPOS>MOLECULE
*****
 42 45 0 0 0
SMALL
GASTEIGER

@<TRIPOS>ATOM
      1 O          -3.2031   -2.3961    0.2464 O.2     1  UNL1       -0.2702
      2 C          -4.2093   -1.6807    0.2591 C.2     1  UNL1        0.2453
      3 N          -5.5688   -2.1303    0.2012 N.am    1  UNL1       -0.3072
      4 C          -6.4613   -1.0419    0.3139 C.3     1  UNL1        0.0379
      5 C          -5.5838    0.1644    0.3073 C.ar    1  UNL1       -0.0176
      6 C          -5.9686    1.4829    0.2894 C.ar    1  UNL1       -0.0563
      7 C          -4.9825    2.4285    0.2940 C.ar    1  UNL1       -0.0608
      8 C          -3.6526    2.1208    0.3173 C.ar    1  UNL1       -0.0519
      9 C          -3.2809    0.7572    0.3377 C.ar    1  UNL1        0.0107
     10 C          -1.8550    0.4869    0.3343 C.ar    1  UNL1        0.0482
     11 C          -1.1259   -0.5204    0.8827 C.ar    1  UNL1       -0.0285
     12 C           0.2428   -0.2680    0.6980 C.ar    1  UNL1        0.0037
     13 C           1.3898   -0.9374    1.0403 C.ar    1  UNL1       -0.0108
     14 C           2.6693   -0.4432    0.7223 C.ar    1  UNL1        0.1212
     15 O           3.7881   -1.1177    1.0704 O.3     1  UNL1       -0.4919
     16 C           5.1225   -0.9141    0.8964 C.3     1  UNL1        0.0917
     17 C           5.6714   -0.8785   -0.4859 C.3     1  UNL1        0.0046
     18 C           7.1849   -0.6378   -0.3459 C.3     1  UNL1        0.0473
     19 O           7.4502    0.5538    0.3000 O.3     1  UNL1       -0.3949
     20 C           2.7273    0.7487    0.0490 C.ar    1  UNL1       -0.0180
     21 C           1.5662    1.4085   -0.2879 C.ar    1  UNL1       -0.0343
     22 C           0.2883    0.9209    0.0259 C.ar    1  UNL1        0.0471
     23 N          -0.9440    1.3677   -0.1890 N.ar    1  UNL1       -0.3541
     24 C          -4.2390   -0.2240    0.3294 C.ar    1  UNL1        0.0504
     25 H          -5.8088   -3.1478    0.0889 H       1  UNL1        0.1493
     26 H          -7.0541   -1.1133    1.2546 H       1  UNL1        0.0512
     27 H          -7.1671   -1.0264   -0.5475 H       1  UNL1        0.0512
     28 H          -7.0151    1.7884    0.2720 H       1  UNL1        0.0621
     29 H          -5.2715    3.4690    0.2783 H       1  UNL1        0.0618
     30 H          -2.8719    2.8701    0.3227 H       1  UNL1        0.0624
     31 H          -1.4110   -1.4156    1.4465 H       1  UNL1        0.0645
     32 H           1.3407   -1.8792    1.5729 H       1  UNL1        0.0661
     33 H           5.4641    0.0381    1.3910 H       1  UNL1        0.0697
     34 H           5.6642   -1.7726    1.4130 H       1  UNL1        0.0697
     35 H           5.6246   -1.9027   -0.9680 H       1  UNL1        0.0320
     36 H           5.3166   -0.0966   -1.1377 H       1  UNL1        0.0320
     37 H           7.6333   -1.5165    0.1725 H       1  UNL1        0.0558
     38 H           7.6199   -0.6222   -1.3665 H       1  UNL1        0.0558
     39 H           6.8094    1.2275   -0.0436 H       1  UNL1        0.2094
     40 H           3.6716    1.2366   -0.2401 H       1  UNL1        0.0655
     41 H           1.6001    2.3558   -0.8232 H       1  UNL1        0.0639
     42 H          -1.1710    2.2568   -0.6832 H       1  UNL1        0.1659
@<TRIPOS>BOND
     1     1     2    2
     2     2     3   am
     3     3     4    1
     4     4     5    1
     5     5     6   ar
     6     6     7   ar
     7     7     8   ar
     8     8     9   ar
     9     9    10    1
    10    10    11   ar
    11    11    12   ar
    12    12    13   ar
    13    13    14   ar
    14    14    15    1
    15    15    16    1
    16    16    17    1
    17    17    18    1
    18    18    19    1
    19    14    20   ar
    20    20    21   ar
    21    21    22   ar
    22    22    23   ar
    23     9    24   ar
    24    24     2    1
    25    24     5   ar
    26    23    10   ar
    27    22    12   ar
    28     3    25    1
    29     4    26    1
    30     4    27    1
    31     6    28    1
    32     7    29    1
    33     8    30    1
    34    11    31    1
    35    13    32    1
    36    16    33    1
    37    16    34    1
    38    17    35    1
    39    17    36    1
    40    18    37    1
    41    18    38    1
    42    19    39    1
    43    20    40    1
    44    21    41    1
    45    23    42    1
