
     RDKit          3D

 42 45  0  0  0  0  0  0  0  0999 V2000
   -3.2031   -2.3961    0.2464 O   0  0  0  0  0  0  0  0  0  0  0  0
   -4.2093   -1.6807    0.2591 C   0  0  0  0  0  0  0  0  0  0  0  0
   -5.5688   -2.1303    0.2012 N   0  0  0  0  0  0  0  0  0  0  0  0
   -6.4613   -1.0419    0.3139 C   0  0  0  0  0  0  0  0  0  0  0  0
   -5.5838    0.1644    0.3073 C   0  0  0  0  0  0  0  0  0  0  0  0
   -5.9686    1.4829    0.2894 C   0  0  0  0  0  0  0  0  0  0  0  0
   -4.9825    2.4285    0.2940 C   0  0  0  0  0  0  0  0  0  0  0  0
   -3.6526    2.1208    0.3173 C   0  0  0  0  0  0  0  0  0  0  0  0
   -3.2809    0.7572    0.3377 C   0  0  0  0  0  0  0  0  0  0  0  0
   -1.8550    0.4869    0.3343 C   0  0  0  0  0  0  0  0  0  0  0  0
   -1.1259   -0.5204    0.8827 C   0  0  0  0  0  0  0  0  0  0  0  0
    0.2428   -0.2680    0.6980 C   0  0  0  0  0  0  0  0  0  0  0  0
    1.3898   -0.9374    1.0403 C   0  0  0  0  0  0  0  0  0  0  0  0
    2.6693   -0.4432    0.7223 C   0  0  0  0  0  0  0  0  0  0  0  0
    3.7881   -1.1177    1.0704 O   0  0  0  0  0  0  0  0  0  0  0  0
    5.1225   -0.9141    0.8964 C   0  0  0  0  0  0  0  0  0  0  0  0
    5.6714   -0.8785   -0.4859 C   0  0  0  0  0  0  0  0  0  0  0  0
    7.1849   -0.6378   -0.3459 C   0  0  0  0  0  0  0  0  0  0  0  0
    7.4502    0.5538    0.3000 O   0  0  0  0  0  0  0  0  0  0  0  0
    2.7273    0.7487    0.0490 C   0  0  0  0  0  0  0  0  0  0  0  0
    1.5662    1.4085   -0.2879 C   0  0  0  0  0  0  0  0  0  0  0  0
    0.2883    0.9209    0.0259 C   0  0  0  0  0  0  0  0  0  0  0  0
   -0.9440    1.3677   -0.1890 N   0  0  0  0  0  0  0  0  0  0  0  0
   -4.2390   -0.2240    0.3294 C   0  0  0  0  0  0  0  0  0  0  0  0
   -5.8088   -3.1478    0.0889 H   0  0  0  0  0  0  0  0  0  0  0  0
   -7.0541   -1.1133    1.2546 H   0  0  0  0  0  0  0  0  0  0  0  0
   -7.1671   -1.0264   -0.5475 H   0  0  0  0  0  0  0  0  0  0  0  0
   -7.0151    1.7884    0.2720 H   0  0  0  0  0  0  0  0  0  0  0  0
   -5.2715    3.4690    0.2783 H   0  0  0  0  0  0  0  0  0  0  0  0
   -2.8719    2.8701    0.3227 H   0  0  0  0  0  0  0  0  0  0  0  0
   -1.4110   -1.4156    1.4465 H   0  0  0  0  0  0  0  0  0  0  0  0
    1.3407   -1.8792    1.5729 H   0  0  0  0  0  0  0  0  0  0  0  0
    5.4641    0.0381    1.3910 H   0  0  0  0  0  0  0  0  0  0  0  0
    5.6642   -1.7726    1.4130 H   0  0  0  0  0  0  0  0  0  0  0  0
    5.6246   -1.9027   -0.9680 H   0  0  0  0  0  0  0  0  0  0  0  0
    5.3166   -0.0966   -1.1377 H   0  0  0  0  0  0  0  0  0  0  0  0
    7.6333   -1.5165    0.1725 H   0  0  0  0  0  0  0  0  0  0  0  0
    7.6199   -0.6222   -1.3665 H   0  0  0  0  0  0  0  0  0  0  0  0
    6.8094    1.2275   -0.0436 H   0  0  0  0  0  0  0  0  0  0  0  0
    3.6716    1.2366   -0.2401 H   0  0  0  0  0  0  0  0  0  0  0  0
    1.6001    2.3558   -0.8232 H   0  0  0  0  0  0  0  0  0  0  0  0
   -1.1710    2.2568   -0.6832 H   0  0  0  0  0  0  0  0  0  0  0  0
  1  2  2  0
  2  3  1  0
  3  4  1  0
  4  5  1  0
  5  6  2  0
  6  7  1  0
  7  8  2  0
  8  9  1  0
  9 10  1  0
 10 11  2  0
 11 12  1  0
 12 13  2  0
 13 14  1  0
 14 15  1  0
 15 16  1  0
 16 17  1  0
 17 18  1  0
 18 19  1  0
 14 20  2  0
 20 21  1  0
 21 22  2  0
 22 23  1  0
  9 24  2  0
 24  2  1  0
 24  5  1  0
 23 10  1  0
 22 12  1  0
  3 25  1  0
  4 26  1  0
  4 27  1  0
  6 28  1  0
  7 29  1  0
  8 30  1  0
 11 31  1  0
 13 32  1  0
 16 33  1  0
 16 34  1  0
 17 35  1  0
 17 36  1  0
 18 37  1  0
 18 38  1  0
 19 39  1  0
 20 40  1  0
 21 41  1  0
 23 42  1  0
M  END
$$$$
