@<TRIPOS>MOLECULE
*****
 120 124 0 0 0
SMALL
GASTEIGER

@<TRIPOS>ATOM
      1 C          -0.3333   -1.5018    0.3342 C.3     1  UNL1        0.1371
      2 O          -0.9929   -2.3887    1.1786 O.3     1  UNL1       -0.3818
      3 C           0.7150   -2.2371   -0.4687 C.2     1  UNL1        0.2127
      4 O           0.1512   -3.2828   -1.1825 O.2     1  UNL1       -0.4939
      5 N           1.9774   -2.2180   -0.7155 N.2     1  UNL1       -0.2521
      6 C           2.8189   -1.2240   -0.0984 C.3     1  UNL1        0.0515
      7 C           3.4945   -0.3143   -1.1008 C.3     1  UNL1        0.0426
      8 C           4.3456    0.6432   -0.3053 C.2     1  UNL1        0.1842
      9 O           5.3037   -0.0939    0.4065 O.2     1  UNL1       -0.4956
     10 N           4.4750    1.9202   -0.0682 N.2     1  UNL1       -0.2539
     11 C           3.6027    2.8597   -0.6835 C.3     1  UNL1        0.0520
     12 C           4.3206    4.1284   -1.0316 C.3     1  UNL1        0.0133
     13 S           5.0147    4.8838    0.4307 S.3     1  UNL1       -0.1589
     14 C           6.4008    3.9324    1.0847 C.3     1  UNL1       -0.0063
     15 C           7.5292    4.0262    0.0784 C.3     1  UNL1       -0.0436
     16 C           8.7644    3.2859    0.4746 C.3     1  UNL1       -0.0440
     17 C           8.5564    1.8001    0.6513 C.3     1  UNL1        0.0230
     18 C           8.0785    1.1884   -0.6363 C.2     1  UNL1        0.1824
     19 O           7.2863    0.9372   -1.7353 O.2     1  UNL1       -0.4956
     20 N           8.5181    0.2986   -1.4221 N.2     1  UNL1       -0.2545
     21 C           9.7475   -0.4090   -1.2044 C.3     1  UNL1        0.0471
     22 C           9.6015   -1.6606   -0.3889 C.3     1  UNL1       -0.0060
     23 C          10.9404   -2.2942   -0.2593 C.ar    1  UNL1       -0.0206
     24 C          11.3302   -3.4191   -0.9832 C.ar    1  UNL1        0.0060
     25 N          12.5861   -3.8040   -0.6963 N.ar    1  UNL1       -0.3604
     26 C          13.0488   -2.9293    0.2313 C.ar    1  UNL1        0.0467
     27 C          14.2517   -2.8299    0.8822 C.ar    1  UNL1       -0.0378
     28 C          14.4901   -1.8219    1.8091 C.ar    1  UNL1       -0.0598
     29 C          13.4608   -0.9119    2.0555 C.ar    1  UNL1       -0.0611
     30 C          12.2255   -0.9905    1.4056 C.ar    1  UNL1       -0.0523
     31 C          12.0514   -2.0191    0.4925 C.ar    1  UNL1        0.0029
     32 C          -1.3207   -0.8510   -0.5780 C.3     1  UNL1        0.0236
     33 C          -0.6071    0.1350   -1.5081 C.3     1  UNL1       -0.0549
     34 C          -1.9529   -1.9368   -1.4509 C.3     1  UNL1       -0.0549
     35 C          -2.4415   -0.2054    0.1682 C.3     1  UNL1        0.0670
     36 O          -2.0797    0.7849    1.0488 O.3     1  UNL1       -0.2857
     37 P          -3.4633    1.4497    1.8100 P.3     1  UNL1        0.4834
     38 O          -2.9230    2.2282    3.2085 O.3     1  UNL1       -0.3022
     39 O          -4.4330    0.3335    2.1261 O.2     1  UNL1       -0.2269
     40 O          -4.1198    2.5817    0.7643 O.3     1  UNL1       -0.1861
     41 P          -5.7062    2.9949    1.0984 P.3     1  UNL1        0.4835
     42 O          -5.8661    4.6557    0.7017 O.3     1  UNL1       -0.3022
     43 O          -5.9646    2.7909    2.5733 O.2     1  UNL1       -0.2269
     44 O          -6.8180    2.1534    0.1388 O.3     1  UNL1       -0.2837
     45 C          -8.0474    2.0401    0.7373 C.3     1  UNL1        0.0879
     46 C          -9.0993    1.4532   -0.1612 C.3     1  UNL1        0.1142
     47 O          -8.7902    0.1719   -0.6033 O.3     1  UNL1       -0.3456
     48 C          -9.9719   -0.3866   -1.0668 C.3     1  UNL1        0.1667
     49 N         -10.0595   -1.7389   -0.5485 N.ar    1  UNL1       -0.2855
     50 C          -9.4316   -2.3393    0.4954 C.ar    1  UNL1        0.1004
     51 N          -9.8930   -3.6154    0.5183 N.ar    1  UNL1       -0.2306
     52 C         -10.7765   -3.7945   -0.4795 C.ar    1  UNL1        0.1473
     53 C         -11.4971   -4.9124   -0.8459 C.ar    1  UNL1        0.1472
     54 N         -11.4186   -6.1617   -0.1751 N.pl3   1  UNL1       -0.3413
     55 N         -12.3320   -4.8346   -1.9023 N.ar    1  UNL1       -0.2188
     56 C         -12.4494   -3.6736   -2.5798 C.ar    1  UNL1        0.1205
     57 N         -11.7370   -2.5924   -2.2062 N.ar    1  UNL1       -0.2159
     58 C         -10.9001   -2.6123   -1.1743 C.ar    1  UNL1        0.1674
     59 C         -11.1276    0.3922   -0.4881 C.3     1  UNL1        0.1294
     60 O         -11.7166    1.2029   -1.4800 O.3     1  UNL1       -0.3846
     61 C         -10.4108    1.2464    0.5303 C.3     1  UNL1        0.1283
     62 O         -11.0857    2.4344    0.7844 O.3     1  UNL1       -0.2780
     63 P         -11.4492    2.4524    2.4377 P.3     1  UNL1        0.4728
     64 O         -12.9332    1.6844    2.7409 O.3     1  UNL1       -0.3026
     65 O         -10.2612    1.6154    3.3053 O.3     1  UNL1       -0.3026
     66 O         -11.6009    3.8786    2.9423 O.2     1  UNL1       -0.2275
     67 H           0.1920   -0.7733    0.9880 H       1  UNL1        0.0697
     68 H          -1.1141   -2.0500    2.1022 H       1  UNL1        0.2105
     69 H           0.5237   -3.5875   -2.0637 H       1  UNL1        0.2935
     70 H           2.2188   -0.5439    0.5693 H       1  UNL1        0.0514
     71 H           3.5664   -1.7081    0.5496 H       1  UNL1        0.0514
     72 H           4.1644   -0.9303   -1.7175 H       1  UNL1        0.0377
     73 H           2.7550    0.2510   -1.6805 H       1  UNL1        0.0377
     74 H           5.8415    0.2829    1.1833 H       1  UNL1        0.2934
     75 H           3.1175    2.4284   -1.6018 H       1  UNL1        0.0517
     76 H           2.7846    3.1361    0.0450 H       1  UNL1        0.0517
     77 H           3.6107    4.8559   -1.5152 H       1  UNL1        0.0394
     78 H           5.1506    3.8745   -1.7499 H       1  UNL1        0.0394
     79 H           6.0791    2.9152    1.3078 H       1  UNL1        0.0376
     80 H           6.7317    4.4791    2.0175 H       1  UNL1        0.0376
     81 H           7.7430    5.1059   -0.0761 H       1  UNL1        0.0273
     82 H           7.1197    3.6313   -0.8729 H       1  UNL1        0.0273
     83 H           9.1245    3.7265    1.4470 H       1  UNL1        0.0270
     84 H           9.5407    3.4347   -0.3042 H       1  UNL1        0.0270
     85 H           9.5408    1.3417    0.8733 H       1  UNL1        0.0359
     86 H           7.8547    1.5608    1.4483 H       1  UNL1        0.0359
     87 H           6.5239    1.5899   -1.9662 H       1  UNL1        0.2934
     88 H          10.2259   -0.7052   -2.1706 H       1  UNL1        0.0512
     89 H          10.4535    0.2623   -0.6747 H       1  UNL1        0.0512
     90 H           8.9048   -2.3569   -0.8511 H       1  UNL1        0.0332
     91 H           9.1747   -1.3862    0.6071 H       1  UNL1        0.0332
     92 H          10.7167   -3.9502   -1.7047 H       1  UNL1        0.0810
     93 H          13.1026   -4.6107   -1.1034 H       1  UNL1        0.1653
     94 H          14.9934   -3.5790    0.6281 H       1  UNL1        0.0638
     95 H          15.4301   -1.7604    2.3055 H       1  UNL1        0.0618
     96 H          13.6597   -0.1341    2.7774 H       1  UNL1        0.0618
     97 H          11.4430   -0.2889    1.6007 H       1  UNL1        0.0624
     98 H          -1.3520    0.8818   -1.8397 H       1  UNL1        0.0237
     99 H          -0.2635   -0.4306   -2.3890 H       1  UNL1        0.0237
    100 H           0.2025    0.6178   -0.9238 H       1  UNL1        0.0237
    101 H          -1.4010   -2.0689   -2.3936 H       1  UNL1        0.0237
    102 H          -2.1162   -2.8755   -0.9203 H       1  UNL1        0.0237
    103 H          -2.9839   -1.6028   -1.7799 H       1  UNL1        0.0237
    104 H          -2.9667   -0.9912    0.7507 H       1  UNL1        0.0572
    105 H          -3.1943    0.1958   -0.5683 H       1  UNL1        0.0572
    106 H          -2.9703    3.2031    3.0884 H       1  UNL1        0.2220
    107 H          -5.8441    4.6560   -0.3075 H       1  UNL1        0.2220
    108 H          -7.9251    1.3281    1.5900 H       1  UNL1        0.0592
    109 H          -8.4316    2.9785    1.1800 H       1  UNL1        0.0592
    110 H          -9.2583    2.1497   -1.0056 H       1  UNL1        0.0647
    111 H         -10.0107   -0.3747   -2.1821 H       1  UNL1        0.0866
    112 H          -8.7338   -1.8143    1.1071 H       1  UNL1        0.1030
    113 H         -10.5727   -6.5125   -0.6578 H       1  UNL1        0.1438
    114 H         -12.1266   -6.3938    0.5391 H       1  UNL1        0.1438
    115 H         -13.1300   -3.6550   -3.4208 H       1  UNL1        0.1048
    116 H         -11.8839   -0.2710   -0.0197 H       1  UNL1        0.0666
    117 H         -11.1391    1.3223   -2.2667 H       1  UNL1        0.2101
    118 H         -10.3211    0.6948    1.4879 H       1  UNL1        0.0656
    119 H         -13.2045    1.0919    1.9774 H       1  UNL1        0.2220
    120 H         -10.6226    0.7806    3.7154 H       1  UNL1        0.2220
@<TRIPOS>BOND
     1     1     2    1
     2     1     3    1
     3     3     4    1
     4     3     5    2
     5     5     6    1
     6     6     7    1
     7     7     8    1
     8     8     9    1
     9     8    10    2
    10    10    11    1
    11    11    12    1
    12    12    13    1
    13    13    14    1
    14    14    15    1
    15    15    16    1
    16    16    17    1
    17    17    18    1
    18    18    19    1
    19    18    20    2
    20    20    21    1
    21    21    22    1
    22    22    23    1
    23    23    24   ar
    24    24    25   ar
    25    25    26   ar
    26    26    27   ar
    27    27    28   ar
    28    28    29   ar
    29    29    30   ar
    30    30    31   ar
    31     1    32    1
    32    32    33    1
    33    32    34    1
    34    32    35    1
    35    35    36    1
    36    36    37    1
    37    37    38    1
    38    37    39    2
    39    37    40    1
    40    40    41    1
    41    41    42    1
    42    41    43    2
    43    41    44    1
    44    44    45    1
    45    45    46    1
    46    46    47    1
    47    47    48    1
    48    48    49    1
    49    49    50   ar
    50    50    51   ar
    51    51    52   ar
    52    52    53   ar
    53    53    54    1
    54    53    55   ar
    55    55    56   ar
    56    56    57   ar
    57    57    58   ar
    58    48    59    1
    59    59    60    1
    60    59    61    1
    61    61    62    1
    62    62    63    1
    63    63    64    1
    64    63    65    1
    65    63    66    2
    66    31    23   ar
    67    61    46    1
    68    31    26   ar
    69    58    49   ar
    70    58    52   ar
    71     1    67    1
    72     2    68    1
    73     4    69    1
    74     6    70    1
    75     6    71    1
    76     7    72    1
    77     7    73    1
    78     9    74    1
    79    11    75    1
    80    11    76    1
    81    12    77    1
    82    12    78    1
    83    14    79    1
    84    14    80    1
    85    15    81    1
    86    15    82    1
    87    16    83    1
    88    16    84    1
    89    17    85    1
    90    17    86    1
    91    19    87    1
    92    21    88    1
    93    21    89    1
    94    22    90    1
    95    22    91    1
    96    24    92    1
    97    25    93    1
    98    27    94    1
    99    28    95    1
   100    29    96    1
   101    30    97    1
   102    33    98    1
   103    33    99    1
   104    33   100    1
   105    34   101    1
   106    34   102    1
   107    34   103    1
   108    35   104    1
   109    35   105    1
   110    38   106    1
   111    42   107    1
   112    45   108    1
   113    45   109    1
   114    46   110    1
   115    48   111    1
   116    50   112    1
   117    54   113    1
   118    54   114    1
   119    56   115    1
   120    59   116    1
   121    60   117    1
   122    61   118    1
   123    64   119    1
   124    65   120    1
