@<TRIPOS>MOLECULE
*****
 67 70 0 0 0
SMALL
GASTEIGER

@<TRIPOS>ATOM
      1 C          -0.5131   -4.4257    1.2497 C.3     1  UNL1       -0.0650
      2 C          -1.5630   -4.0404    2.2539 C.3     1  UNL1       -0.0518
      3 C          -1.6605   -2.5860    2.5819 C.3     1  UNL1       -0.0245
      4 C          -1.9793   -1.7618    1.3908 C.ar    1  UNL1       -0.0052
      5 C          -3.2957   -1.4289    1.1392 C.ar    1  UNL1       -0.0479
      6 C          -3.7449   -0.6988    0.0605 C.ar    1  UNL1       -0.0246
      7 C          -5.1631   -0.4277   -0.1357 C.2     1  UNL1       -0.0553
      8 C          -5.7085    0.7180   -0.3515 C.2     1  UNL1       -0.0690
      9 C          -7.2104    0.7572   -0.5313 C.3     1  UNL1       -0.0314
     10 C          -7.7187    2.1784   -0.4699 C.3     1  UNL1       -0.0493
     11 C          -7.0287    3.0997   -1.4401 C.3     1  UNL1       -0.0525
     12 C          -5.5699    2.7351   -1.6481 C.3     1  UNL1       -0.0493
     13 C          -5.0387    2.0302   -0.4096 C.3     1  UNL1       -0.0314
     14 C          -2.7688   -0.2809   -0.8250 C.ar    1  UNL1       -0.0511
     15 C          -1.4440   -0.5806   -0.6265 C.ar    1  UNL1       -0.0191
     16 C          -1.0433   -1.3222    0.4831 C.ar    1  UNL1        0.1237
     17 O           0.2974   -1.6085    0.6667 O.3     1  UNL1       -0.4916
     18 C           1.2955   -1.1846   -0.2335 C.3     1  UNL1        0.0927
     19 C           2.6386   -1.6915    0.3091 C.3     1  UNL1        0.0157
     20 C           2.8439   -1.0889    1.6616 C.3     1  UNL1        0.0927
     21 O           2.8855    0.2754    1.6241 O.3     1  UNL1       -0.4918
     22 C           3.8363    1.0705    1.0301 C.ar    1  UNL1        0.1211
     23 C           3.6635    2.4707    1.0634 C.ar    1  UNL1       -0.0199
     24 C           4.5848    3.2914    0.4896 C.ar    1  UNL1       -0.0577
     25 C           5.7056    2.7356   -0.1340 C.ar    1  UNL1       -0.0531
     26 C           5.8792    1.3946   -0.1698 C.ar    1  UNL1       -0.0026
     27 C           7.0429    0.8451   -0.8251 C.ar    1  UNL1        0.0838
     28 S           7.3804   -0.8950   -0.9268 S.2     1  UNL1       -0.0230
     29 C           8.9761   -0.7447   -1.8821 C.ar    1  UNL1        0.2913
     30 O           9.6577   -1.6724   -2.2338 O.2     1  UNL1       -0.2596
     31 N           9.0250    0.5768   -1.9858 N.ar    1  UNL1       -0.2870
     32 C           8.1283    1.3694   -1.4984 C.ar    1  UNL1        0.2081
     33 O           8.2065    2.7967   -1.6249 O.3     1  UNL1       -0.4928
     34 C           4.9366    0.5674    0.4178 C.ar    1  UNL1       -0.0116
     35 H          -0.7236   -4.0488    0.2373 H       1  UNL1        0.0230
     36 H           0.4784   -4.1115    1.6031 H       1  UNL1        0.0230
     37 H          -0.5604   -5.5506    1.1429 H       1  UNL1        0.0230
     38 H          -1.4877   -4.6516    3.1865 H       1  UNL1        0.0266
     39 H          -2.5440   -4.3967    1.7986 H       1  UNL1        0.0266
     40 H          -0.6836   -2.2615    3.0092 H       1  UNL1        0.0314
     41 H          -2.4770   -2.4518    3.3263 H       1  UNL1        0.0314
     42 H          -4.0433   -1.7671    1.8455 H       1  UNL1        0.0627
     43 H          -5.8090   -1.3218   -0.0885 H       1  UNL1        0.0623
     44 H          -7.4928    0.2339   -1.4507 H       1  UNL1        0.0310
     45 H          -7.6290    0.2076    0.3335 H       1  UNL1        0.0310
     46 H          -8.7942    2.1484   -0.7070 H       1  UNL1        0.0268
     47 H          -7.6473    2.5336    0.5914 H       1  UNL1        0.0268
     48 H          -7.0538    4.1231   -1.0045 H       1  UNL1        0.0265
     49 H          -7.5363    3.1071   -2.4126 H       1  UNL1        0.0265
     50 H          -5.4856    2.0169   -2.4885 H       1  UNL1        0.0268
     51 H          -4.9545    3.6455   -1.8049 H       1  UNL1        0.0268
     52 H          -3.9651    1.9460   -0.4644 H       1  UNL1        0.0310
     53 H          -5.3139    2.6081    0.5110 H       1  UNL1        0.0310
     54 H          -3.0129    0.2790   -1.7128 H       1  UNL1        0.0625
     55 H          -0.6592   -0.2688   -1.2978 H       1  UNL1        0.0654
     56 H           1.0936   -1.5666   -1.2477 H       1  UNL1        0.0697
     57 H           1.3357   -0.0897   -0.2972 H       1  UNL1        0.0697
     58 H           3.3706   -1.4397   -0.4527 H       1  UNL1        0.0331
     59 H           2.6044   -2.8112    0.4022 H       1  UNL1        0.0331
     60 H           3.7496   -1.5117    2.1687 H       1  UNL1        0.0697
     61 H           1.9888   -1.4313    2.3277 H       1  UNL1        0.0697
     62 H           2.7630    2.8451    1.5674 H       1  UNL1        0.0654
     63 H           4.4377    4.3760    0.5236 H       1  UNL1        0.0619
     64 H           6.3746    3.4598   -0.5573 H       1  UNL1        0.0624
     65 H           9.9025    0.9719   -2.5295 H       1  UNL1        0.1723
     66 H           9.0740    3.2061   -1.3623 H       1  UNL1        0.2937
     67 H           5.1671   -0.5012    0.3763 H       1  UNL1        0.0660
@<TRIPOS>BOND
     1     1     2    1
     2     2     3    1
     3     3     4    1
     4     4     5   ar
     5     5     6   ar
     6     6     7    1
     7     7     8    2
     8     8     9    1
     9     9    10    1
    10    10    11    1
    11    11    12    1
    12    12    13    1
    13     6    14   ar
    14    14    15   ar
    15    15    16   ar
    16    16    17    1
    17    17    18    1
    18    18    19    1
    19    19    20    1
    20    20    21    1
    21    21    22    1
    22    22    23   ar
    23    23    24   ar
    24    24    25   ar
    25    25    26   ar
    26    26    27    1
    27    27    28   ar
    28    28    29   ar
    29    29    30    2
    30    29    31   ar
    31    31    32   ar
    32    32    33    1
    33    26    34   ar
    34    16     4   ar
    35    34    22   ar
    36    13     8    1
    37    32    27   ar
    38     1    35    1
    39     1    36    1
    40     1    37    1
    41     2    38    1
    42     2    39    1
    43     3    40    1
    44     3    41    1
    45     5    42    1
    46     7    43    1
    47     9    44    1
    48     9    45    1
    49    10    46    1
    50    10    47    1
    51    11    48    1
    52    11    49    1
    53    12    50    1
    54    12    51    1
    55    13    52    1
    56    13    53    1
    57    14    54    1
    58    15    55    1
    59    18    56    1
    60    18    57    1
    61    19    58    1
    62    19    59    1
    63    20    60    1
    64    20    61    1
    65    23    62    1
    66    24    63    1
    67    25    64    1
    68    31    65    1
    69    33    66    1
    70    34    67    1
