@<TRIPOS>MOLECULE
*****
 62 65 0 0 0
SMALL
GASTEIGER

@<TRIPOS>ATOM
      1 C          -6.9521    1.7220   -4.0354 C.3     1  UNL1        0.0788
      2 O          -6.8107    2.2170   -2.7241 O.3     1  UNL1       -0.4951
      3 C          -5.8754    1.5867   -1.9021 C.ar    1  UNL1        0.1201
      4 C          -5.1117    0.5279   -2.3262 C.ar    1  UNL1       -0.0194
      5 C          -4.1967   -0.0903   -1.5253 C.ar    1  UNL1       -0.0506
      6 C          -4.0624    0.4023   -0.2340 C.ar    1  UNL1       -0.0177
      7 C          -3.1013   -0.2033    0.6904 C.ar    1  UNL1       -0.0178
      8 C          -2.4803    0.5528    1.6658 C.ar    1  UNL1       -0.0522
      9 C          -1.5731   -0.0052    2.5406 C.ar    1  UNL1       -0.0348
     10 C          -1.2375   -1.3594    2.4841 C.ar    1  UNL1        0.1053
     11 S          -0.0938   -2.0630    3.5864 S.O2    1  UNL1        0.0591
     12 O          -0.1566   -1.4259    4.9469 O.2     1  UNL1       -0.1530
     13 O          -0.4411   -3.5176    3.7587 O.2     1  UNL1       -0.1530
     14 N           1.4744   -1.9806    2.9119 N.3     1  UNL1       -0.1759
     15 C           1.9498   -0.6585    2.6578 C.3     1  UNL1        0.1281
     16 C           3.1436   -0.3451    3.5203 C.2     1  UNL1        0.3238
     17 O           3.6679    0.7765    3.4069 O.2     1  UNL1       -0.2492
     18 O           3.6545   -1.2756    4.4218 O.3     1  UNL1       -0.4795
     19 C           2.3582   -0.5067    1.2371 C.3     1  UNL1       -0.0136
     20 C           3.4662   -1.4882    0.9115 C.3     1  UNL1       -0.0463
     21 C           4.1361   -0.9993   -0.3418 C.3     1  UNL1       -0.0315
     22 C           3.2111   -0.6257   -1.4449 C.3     1  UNL1        0.0421
     23 N           3.7767    0.5240   -2.1273 N.ar    1  UNL1       -0.2606
     24 C           3.6100    1.8344   -1.9095 C.ar    1  UNL1        0.2135
     25 O           2.8282    2.4222   -0.9475 O.3     1  UNL1       -0.4924
     26 C           4.3673    2.5682   -2.8264 C.ar    1  UNL1        0.0662
     27 N           4.9828    1.6756   -3.5881 N.ar    1  UNL1       -0.3093
     28 C           4.6312    0.4624   -3.1716 C.ar    1  UNL1        0.3296
     29 O           5.0510   -0.6234   -3.6957 O.2     1  UNL1       -0.2465
     30 C           1.7880   -0.4507   -1.1460 C.3     1  UNL1       -0.0315
     31 C           1.2896   -0.7666    0.2196 C.3     1  UNL1       -0.0463
     32 C          -1.8627   -2.1032    1.5082 C.ar    1  UNL1       -0.0348
     33 C          -2.7702   -1.5413    0.6344 C.ar    1  UNL1       -0.0522
     34 C          -4.8199    1.4619    0.2053 C.ar    1  UNL1       -0.0506
     35 C          -5.7342    2.0682   -0.6179 C.ar    1  UNL1       -0.0194
     36 H          -7.2808    0.6484   -3.9186 H       1  UNL1        0.0660
     37 H          -6.0161    1.7579   -4.6152 H       1  UNL1        0.0660
     38 H          -7.7604    2.2702   -4.5522 H       1  UNL1        0.0660
     39 H          -5.2405    0.1652   -3.3455 H       1  UNL1        0.0654
     40 H          -3.5767   -0.9205   -1.8100 H       1  UNL1        0.0625
     41 H          -2.7441    1.6104    1.7075 H       1  UNL1        0.0624
     42 H          -1.1121    0.6072    3.2820 H       1  UNL1        0.0637
     43 H           1.5543   -2.5481    2.0479 H       1  UNL1        0.1489
     44 H           1.2053    0.1269    2.9095 H       1  UNL1        0.0595
     45 H           4.6294   -1.2813    4.6546 H       1  UNL1        0.2951
     46 H           2.7833    0.5101    1.0177 H       1  UNL1        0.0322
     47 H           3.0805   -2.4979    0.7113 H       1  UNL1        0.0269
     48 H           4.1669   -1.5076    1.7441 H       1  UNL1        0.0269
     49 H           4.7609   -0.1172   -0.0367 H       1  UNL1        0.0285
     50 H           4.8689   -1.7813   -0.6313 H       1  UNL1        0.0285
     51 H           3.2840   -1.4775   -2.1928 H       1  UNL1        0.0530
     52 H           3.1617    3.1351   -0.3099 H       1  UNL1        0.2937
     53 H           4.4422    3.6434   -2.9073 H       1  UNL1        0.0862
     54 H           5.6388    1.8779   -4.3870 H       1  UNL1        0.1700
     55 H           1.4671    0.6079   -1.3855 H       1  UNL1        0.0285
     56 H           1.1227   -1.0388   -1.8563 H       1  UNL1        0.0285
     57 H           1.0059   -1.8552    0.2306 H       1  UNL1        0.0269
     58 H           0.3733   -0.1631    0.4112 H       1  UNL1        0.0269
     59 H          -1.6133   -3.1638    1.4486 H       1  UNL1        0.0637
     60 H          -3.2569   -2.1314   -0.1297 H       1  UNL1        0.0624
     61 H          -4.7044    1.8318    1.2077 H       1  UNL1        0.0625
     62 H          -6.3466    2.9192   -0.2711 H       1  UNL1        0.0654
@<TRIPOS>BOND
     1     1     2    1
     2     2     3    1
     3     3     4   ar
     4     4     5   ar
     5     5     6   ar
     6     6     7    1
     7     7     8   ar
     8     8     9   ar
     9     9    10   ar
    10    10    11    1
    11    11    12    2
    12    11    13    2
    13    11    14    1
    14    14    15    1
    15    15    16    1
    16    16    17    2
    17    16    18    1
    18    15    19    1
    19    19    20    1
    20    20    21    1
    21    21    22    1
    22    22    23    1
    23    23    24   ar
    24    24    25    1
    25    24    26   ar
    26    26    27   ar
    27    27    28   ar
    28    28    29    2
    29    22    30    1
    30    30    31    1
    31    10    32   ar
    32    32    33   ar
    33     6    34   ar
    34    34    35   ar
    35    35     3   ar
    36    33     7   ar
    37    31    19    1
    38    28    23   ar
    39     1    36    1
    40     1    37    1
    41     1    38    1
    42     4    39    1
    43     5    40    1
    44     8    41    1
    45     9    42    1
    46    14    43    1
    47    15    44    1
    48    18    45    1
    49    19    46    1
    50    20    47    1
    51    20    48    1
    52    21    49    1
    53    21    50    1
    54    22    51    1
    55    25    52    1
    56    26    53    1
    57    27    54    1
    58    30    55    1
    59    30    56    1
    60    31    57    1
    61    31    58    1
    62    32    59    1
    63    33    60    1
    64    34    61    1
    65    35    62    1
