@<TRIPOS>MOLECULE
*****
 39 42 0 0 0
SMALL
GASTEIGER

@<TRIPOS>ATOM
      1 C          -1.9836   -3.2343   -0.5760 C.3     1  UNL1       -0.0437
      2 C          -1.1981   -2.0226   -0.1416 C.2     1  UNL1       -0.0742
      3 C          -0.6978   -1.9273    1.0822 C.2     1  UNL1       -0.0812
      4 C          -0.3840   -0.6155    1.7158 C.3     1  UNL1       -0.0125
      5 C           1.0984   -0.4648    1.8899 C.3     1  UNL1       -0.0055
      6 C           1.7636   -0.2457    0.5943 C.ar    1  UNL1        0.0246
      7 N           3.1117   -0.3899    0.5238 N.ar    1  UNL1       -0.3259
      8 C           3.7941   -0.2066   -0.6251 C.ar    1  UNL1        0.2489
      9 O           5.0589   -0.3515   -0.6497 O.2     1  UNL1       -0.2679
     10 C           3.1239    0.1387   -1.7786 C.ar    1  UNL1        0.0031
     11 C           1.7473    0.2865   -1.7092 C.ar    1  UNL1       -0.0500
     12 C           1.0589    0.0983   -0.5358 C.ar    1  UNL1       -0.0074
     13 C          -0.4147    0.2763   -0.5470 C.3     1  UNL1        0.0531
     14 C          -1.0276   -0.9587   -1.1689 C.3     1  UNL1       -0.0092
     15 N          -0.6937    1.4120   -1.4117 N.3     1  UNL1       -0.3062
     16 C          -1.7788    2.1751   -0.8770 C.3     1  UNL1       -0.0033
     17 C          -1.3104    2.8351    0.4077 C.3     1  UNL1       -0.0401
     18 C          -0.7882    1.8332    1.3857 C.3     1  UNL1       -0.0465
     19 C          -0.9811    0.4514    0.8224 C.3     1  UNL1       -0.0116
     20 H          -2.2071   -3.8964    0.2696 H       1  UNL1        0.0274
     21 H          -1.4131   -3.7359   -1.3611 H       1  UNL1        0.0274
     22 H          -2.9546   -2.8760   -1.0087 H       1  UNL1        0.0274
     23 H          -0.5079   -2.8251    1.6472 H       1  UNL1        0.0575
     24 H          -0.8466   -0.5339    2.7229 H       1  UNL1        0.0350
     25 H           1.3158    0.3737    2.5596 H       1  UNL1        0.0333
     26 H           1.4880   -1.4193    2.3077 H       1  UNL1        0.0333
     27 H           3.6250   -0.6499    1.3883 H       1  UNL1        0.1686
     28 H           3.6681    0.2849   -2.6952 H       1  UNL1        0.0672
     29 H           1.2301    0.5580   -2.6212 H       1  UNL1        0.0623
     30 H          -0.3948   -1.3532   -1.9954 H       1  UNL1        0.0331
     31 H          -2.0561   -0.6749   -1.5375 H       1  UNL1        0.0331
     32 H           0.1408    2.0142   -1.5046 H       1  UNL1        0.1228
     33 H          -2.0124    2.9848   -1.5929 H       1  UNL1        0.0424
     34 H          -2.6782    1.5593   -0.6930 H       1  UNL1        0.0424
     35 H          -2.1658    3.4183    0.8132 H       1  UNL1        0.0278
     36 H          -0.5249    3.5653    0.1525 H       1  UNL1        0.0278
     37 H          -1.4117    1.8855    2.3168 H       1  UNL1        0.0269
     38 H           0.2793    1.9761    1.6515 H       1  UNL1        0.0269
     39 H          -2.0727    0.2546    0.7790 H       1  UNL1        0.0328
@<TRIPOS>BOND
     1     1     2    1
     2     2     3    2
     3     3     4    1
     4     4     5    1
     5     5     6    1
     6     6     7   ar
     7     7     8   ar
     8     8     9    2
     9     8    10   ar
    10    10    11   ar
    11    11    12   ar
    12    12    13    1
    13    13    14    1
    14    13    15    1
    15    15    16    1
    16    16    17    1
    17    17    18    1
    18    18    19    1
    19    14     2    1
    20    19     4    1
    21    12     6   ar
    22    19    13    1
    23     1    20    1
    24     1    21    1
    25     1    22    1
    26     3    23    1
    27     4    24    1
    28     5    25    1
    29     5    26    1
    30     7    27    1
    31    10    28    1
    32    11    29    1
    33    14    30    1
    34    14    31    1
    35    15    32    1
    36    16    33    1
    37    16    34    1
    38    17    35    1
    39    17    36    1
    40    18    37    1
    41    18    38    1
    42    19    39    1
