
     RDKit          3D

 39 42  0  0  0  0  0  0  0  0999 V2000
   -1.9836   -3.2343   -0.5760 C   0  0  0  0  0  0  0  0  0  0  0  0
   -1.1981   -2.0226   -0.1416 C   0  0  0  0  0  0  0  0  0  0  0  0
   -0.6978   -1.9273    1.0822 C   0  0  0  0  0  0  0  0  0  0  0  0
   -0.3840   -0.6155    1.7158 C   0  0  1  0  0  0  0  0  0  0  0  0
    1.0984   -0.4648    1.8899 C   0  0  0  0  0  0  0  0  0  0  0  0
    1.7636   -0.2457    0.5943 C   0  0  0  0  0  0  0  0  0  0  0  0
    3.1117   -0.3899    0.5238 N   0  0  0  0  0  0  0  0  0  0  0  0
    3.7941   -0.2066   -0.6251 C   0  0  0  0  0  0  0  0  0  0  0  0
    5.0589   -0.3515   -0.6497 O   0  0  0  0  0  0  0  0  0  0  0  0
    3.1239    0.1387   -1.7786 C   0  0  0  0  0  0  0  0  0  0  0  0
    1.7473    0.2865   -1.7092 C   0  0  0  0  0  0  0  0  0  0  0  0
    1.0589    0.0983   -0.5358 C   0  0  0  0  0  0  0  0  0  0  0  0
   -0.4147    0.2763   -0.5470 C   0  0  2  0  0  0  0  0  0  0  0  0
   -1.0276   -0.9587   -1.1689 C   0  0  0  0  0  0  0  0  0  0  0  0
   -0.6937    1.4120   -1.4117 N   0  0  0  0  0  0  0  0  0  0  0  0
   -1.7788    2.1751   -0.8770 C   0  0  0  0  0  0  0  0  0  0  0  0
   -1.3104    2.8351    0.4077 C   0  0  0  0  0  0  0  0  0  0  0  0
   -0.7882    1.8332    1.3857 C   0  0  0  0  0  0  0  0  0  0  0  0
   -0.9811    0.4514    0.8224 C   0  0  2  0  0  0  0  0  0  0  0  0
   -2.2071   -3.8964    0.2696 H   0  0  0  0  0  0  0  0  0  0  0  0
   -1.4131   -3.7359   -1.3611 H   0  0  0  0  0  0  0  0  0  0  0  0
   -2.9546   -2.8760   -1.0087 H   0  0  0  0  0  0  0  0  0  0  0  0
   -0.5079   -2.8251    1.6472 H   0  0  0  0  0  0  0  0  0  0  0  0
   -0.8466   -0.5339    2.7229 H   0  0  0  0  0  0  0  0  0  0  0  0
    1.3158    0.3737    2.5596 H   0  0  0  0  0  0  0  0  0  0  0  0
    1.4880   -1.4193    2.3077 H   0  0  0  0  0  0  0  0  0  0  0  0
    3.6250   -0.6499    1.3883 H   0  0  0  0  0  0  0  0  0  0  0  0
    3.6681    0.2849   -2.6952 H   0  0  0  0  0  0  0  0  0  0  0  0
    1.2301    0.5580   -2.6212 H   0  0  0  0  0  0  0  0  0  0  0  0
   -0.3948   -1.3532   -1.9954 H   0  0  0  0  0  0  0  0  0  0  0  0
   -2.0561   -0.6749   -1.5375 H   0  0  0  0  0  0  0  0  0  0  0  0
    0.1408    2.0142   -1.5046 H   0  0  0  0  0  0  0  0  0  0  0  0
   -2.0124    2.9848   -1.5929 H   0  0  0  0  0  0  0  0  0  0  0  0
   -2.6782    1.5593   -0.6930 H   0  0  0  0  0  0  0  0  0  0  0  0
   -2.1658    3.4183    0.8132 H   0  0  0  0  0  0  0  0  0  0  0  0
   -0.5249    3.5653    0.1525 H   0  0  0  0  0  0  0  0  0  0  0  0
   -1.4117    1.8855    2.3168 H   0  0  0  0  0  0  0  0  0  0  0  0
    0.2793    1.9761    1.6515 H   0  0  0  0  0  0  0  0  0  0  0  0
   -2.0727    0.2546    0.7790 H   0  0  0  0  0  0  0  0  0  0  0  0
  1  2  1  0
  2  3  2  0
  3  4  1  0
  4  5  1  0
  5  6  1  0
  6  7  1  0
  7  8  1  0
  8  9  2  0
  8 10  1  0
 10 11  2  0
 11 12  1  0
 12 13  1  0
 13 14  1  0
 13 15  1  6
 15 16  1  0
 16 17  1  0
 17 18  1  0
 18 19  1  0
 14  2  1  0
 19  4  1  0
 12  6  2  0
 19 13  1  0
  1 20  1  0
  1 21  1  0
  1 22  1  0
  3 23  1  0
  4 24  1  1
  5 25  1  0
  5 26  1  0
  7 27  1  0
 10 28  1  0
 11 29  1  0
 14 30  1  0
 14 31  1  0
 15 32  1  0
 16 33  1  0
 16 34  1  0
 17 35  1  0
 17 36  1  0
 18 37  1  0
 18 38  1  0
 19 39  1  6
M  END
$$$$
