@<TRIPOS>MOLECULE
*****
 78 83 0 0 0
SMALL
GASTEIGER

@<TRIPOS>ATOM
      1 C          11.3969    0.5093    1.9378 C.3     1  UNL1        0.0789
      2 O          11.2211   -0.1271    0.8039 O.3     1  UNL1       -0.4933
      3 C           9.9266   -0.3560    0.3973 C.ar    1  UNL1        0.1412
      4 C           8.6292   -0.4260    0.9550 C.ar    1  UNL1       -0.0104
      5 C           7.5138   -0.6040    0.4048 C.ar    1  UNL1       -0.0143
      6 C           6.2673   -1.1324    0.6698 C.ar    1  UNL1       -0.0160
      7 C           5.8471   -2.2738    1.2273 C.ar    1  UNL1       -0.0532
      8 C           4.5361   -2.5768    1.5254 C.ar    1  UNL1       -0.0473
      9 C           3.4873   -1.6673    1.2167 C.ar    1  UNL1        0.0581
     10 C           3.8824   -0.4665    0.6341 C.ar    1  UNL1        0.0442
     11 C           5.2183   -0.2438    0.4018 C.ar    1  UNL1       -0.0321
     12 N           3.0866    0.6482    0.2363 N.pl3   1  UNL1       -0.3124
     13 C           1.7206    0.5848   -0.0427 C.ar    1  UNL1        0.0529
     14 C           1.3979    1.6397   -0.9694 C.ar    1  UNL1       -0.0384
     15 C           0.1127    1.6743   -1.3635 C.ar    1  UNL1       -0.0557
     16 C          -0.8331    0.8366   -1.0130 C.ar    1  UNL1       -0.0311
     17 C          -2.2171    1.1378   -1.4837 C.3     1  UNL1        0.0666
     18 C          -2.3171    0.4596   -2.8715 C.3     1  UNL1       -0.0474
     19 C          -2.3621    2.6667   -1.6872 C.3     1  UNL1       -0.0474
     20 C          -3.3141    0.7475   -0.6115 C.2     1  UNL1        0.2272
     21 O          -4.4466    0.5840   -1.2170 O.2     1  UNL1       -0.2745
     22 N          -3.2814    0.5028    0.8347 N.am    1  UNL1       -0.2848
     23 C          -4.6420    0.1103    1.3306 C.ar    1  UNL1        0.0335
     24 C          -5.1327   -1.0150    0.9111 C.ar    1  UNL1       -0.0387
     25 C          -6.5555   -1.1309    0.7938 C.ar    1  UNL1       -0.0389
     26 C          -7.2386   -0.0084    1.1030 C.ar    1  UNL1        0.0299
     27 N          -8.5319    0.1625    0.3602 N.pl3   1  UNL1       -0.3255
     28 C          -9.3870    1.3072    0.4418 C.3     1  UNL1        0.0357
     29 C         -10.6659    0.6331    0.9753 C.3     1  UNL1        0.0634
     30 O         -11.0130   -0.3347    0.0614 O.3     1  UNL1       -0.3767
     31 C         -10.1571   -1.3749   -0.0954 C.3     1  UNL1        0.0634
     32 C          -8.8602   -0.7843   -0.7028 C.3     1  UNL1        0.0357
     33 C          -6.7630    1.1683    1.5547 C.ar    1  UNL1       -0.0389
     34 C          -5.3421    1.2369    1.6650 C.ar    1  UNL1       -0.0387
     35 C          -0.5873   -0.1482   -0.1502 C.ar    1  UNL1       -0.0345
     36 C           0.7117   -0.2813    0.3295 C.ar    1  UNL1        0.0553
     37 N           0.9020   -1.5188    1.0605 N.am    1  UNL1       -0.2799
     38 C           2.1304   -2.1483    1.3287 C.2     1  UNL1        0.2501
     39 O           2.0784   -3.3675    1.7374 O.2     1  UNL1       -0.2698
     40 C           7.7872   -0.7069   -1.1444 C.ar    1  UNL1       -0.0521
     41 C           8.8936   -0.6828   -1.6636 C.ar    1  UNL1       -0.0369
     42 C          10.0148   -0.5474   -1.0679 C.ar    1  UNL1        0.0669
     43 N          11.4028   -0.7559   -1.4660 N.pl3   1  UNL1       -0.3551
     44 H          12.2361    1.4328    1.1401 H       1  UNL1        0.0660
     45 H          10.6332    1.5727    1.6955 H       1  UNL1        0.0660
     46 H          12.0136    0.7621    2.6100 H       1  UNL1        0.0660
     47 H           8.5225   -0.6017    2.1529 H       1  UNL1        0.0661
     48 H           6.5557   -3.1004    1.4695 H       1  UNL1        0.0624
     49 H           4.2041   -3.5002    1.9769 H       1  UNL1        0.0626
     50 H           5.4657    0.7508    0.0185 H       1  UNL1        0.0642
     51 H           3.5808    1.5823    0.1748 H       1  UNL1        0.1522
     52 H           2.2020    2.3336   -1.2662 H       1  UNL1        0.0637
     53 H          -0.0375    2.4805   -2.1487 H       1  UNL1        0.0621
     54 H          -1.5934    1.0258   -3.5479 H       1  UNL1        0.0243
     55 H          -3.3060    0.3975   -3.2077 H       1  UNL1        0.0243
     56 H          -1.8069   -0.5449   -2.7036 H       1  UNL1        0.0243
     57 H          -1.9889    3.1549   -0.7711 H       1  UNL1        0.0243
     58 H          -3.4743    2.9361   -1.6827 H       1  UNL1        0.0243
     59 H          -1.9139    3.0090   -2.6056 H       1  UNL1        0.0243
     60 H          -2.4448    0.6120    1.3471 H       1  UNL1        0.1548
     61 H          -4.5510   -1.9699    0.7305 H       1  UNL1        0.0637
     62 H          -7.0728   -1.9982    0.5197 H       1  UNL1        0.0637
     63 H          -9.0468    2.1702    0.9310 H       1  UNL1        0.0486
     64 H          -9.6692    1.6182   -0.6081 H       1  UNL1        0.0486
     65 H         -10.2458    0.1200    1.9123 H       1  UNL1        0.0575
     66 H         -11.4533    1.3443    1.1762 H       1  UNL1        0.0575
     67 H          -9.8317   -1.7459    0.9296 H       1  UNL1        0.0575
     68 H         -10.5543   -2.1422   -0.7500 H       1  UNL1        0.0575
     69 H          -8.1049   -1.4880   -0.9753 H       1  UNL1        0.0486
     70 H          -9.2048   -0.3055   -1.6402 H       1  UNL1        0.0486
     71 H          -7.3405    2.0400    1.8575 H       1  UNL1        0.0637
     72 H          -4.8364    2.0812    2.1154 H       1  UNL1        0.0637
     73 H          -1.3782   -0.8444    0.2236 H       1  UNL1        0.0640
     74 H           0.0466   -2.0061    1.3952 H       1  UNL1        0.1552
     75 H           6.9365   -0.6582   -1.7968 H       1  UNL1        0.0624
     76 H           9.0601   -0.7488   -2.8039 H       1  UNL1        0.0637
     77 H          11.9807   -1.6505   -1.2529 H       1  UNL1        0.1424
     78 H          11.9012   -0.0496   -2.0410 H       1  UNL1        0.1424
@<TRIPOS>BOND
     1     1     2    1
     2     2     3    1
     3     3     4   ar
     4     4     5   ar
     5     5     6    1
     6     6     7   ar
     7     7     8   ar
     8     8     9   ar
     9     9    10   ar
    10    10    11   ar
    11    10    12    1
    12    12    13    1
    13    13    14   ar
    14    14    15   ar
    15    15    16   ar
    16    16    17    1
    17    17    18    1
    18    17    19    1
    19    17    20    1
    20    20    21    2
    21    20    22   am
    22    22    23    1
    23    23    24   ar
    24    24    25   ar
    25    25    26   ar
    26    26    27    1
    27    27    28    1
    28    28    29    1
    29    29    30    1
    30    30    31    1
    31    31    32    1
    32    26    33   ar
    33    33    34   ar
    34    16    35   ar
    35    35    36   ar
    36    36    37    1
    37    37    38   am
    38    38    39    2
    39     5    40   ar
    40    40    41   ar
    41    41    42   ar
    42    42    43    1
    43    42     3   ar
    44    11     6   ar
    45    36    13   ar
    46    38     9    1
    47    34    23   ar
    48    32    27    1
    49     1    44    1
    50     1    45    1
    51     1    46    1
    52     4    47    1
    53     7    48    1
    54     8    49    1
    55    11    50    1
    56    12    51    1
    57    14    52    1
    58    15    53    1
    59    18    54    1
    60    18    55    1
    61    18    56    1
    62    19    57    1
    63    19    58    1
    64    19    59    1
    65    22    60    1
    66    24    61    1
    67    25    62    1
    68    28    63    1
    69    28    64    1
    70    29    65    1
    71    29    66    1
    72    31    67    1
    73    31    68    1
    74    32    69    1
    75    32    70    1
    76    33    71    1
    77    34    72    1
    78    35    73    1
    79    37    74    1
    80    40    75    1
    81    41    76    1
    82    43    77    1
    83    43    78    1
