@<TRIPOS>MOLECULE
*****
 46 50 0 0 0
SMALL
GASTEIGER

@<TRIPOS>ATOM
      1 N          -4.1608   -2.7269   -2.3095 N.1     1  UNL1       -0.1893
      2 C          -3.5051   -2.7143   -0.7888 C.1     1  UNL1        0.1192
      3 C          -3.0508   -2.6859    0.2576 C.ar    1  UNL1        0.1438
      4 C          -3.1696   -3.7172    1.3144 C.ar    1  UNL1        0.0643
      5 N          -2.2674   -3.4196    2.2369 N.ar    1  UNL1       -0.2348
      6 C          -1.6162   -2.3719    1.9195 C.ar    1  UNL1        0.1385
      7 C          -0.5667   -1.6886    2.4828 C.ar    1  UNL1       -0.0181
      8 C           0.0445   -0.5901    2.0532 C.ar    1  UNL1       -0.0477
      9 C          -0.3679   -0.0315    0.8080 C.ar    1  UNL1        0.0173
     10 C           0.3107    1.0467    0.1517 C.ar    1  UNL1        0.0778
     11 C          -0.1623    2.0197   -0.8642 C.ar    1  UNL1        0.0967
     12 C          -1.6379    2.3090   -0.9634 C.ar    1  UNL1        0.0026
     13 C          -2.1977    2.4888   -2.2018 C.ar    1  UNL1       -0.0498
     14 C          -3.6615    2.7419   -2.2410 C.ar    1  UNL1       -0.0258
     15 C          -4.2179    2.7895   -1.0952 C.ar    1  UNL1        0.1234
     16 F          -5.6877    3.1506   -1.1296 F       1  UNL1       -0.2055
     17 C          -3.8156    2.6189    0.1528 C.ar    1  UNL1       -0.0258
     18 C          -2.3370    2.3442    0.2203 C.ar    1  UNL1       -0.0498
     19 N           0.7688    2.4346   -1.2978 N.ar    1  UNL1       -0.2351
     20 C           1.9091    2.1835   -1.0478 C.ar    1  UNL1        0.0971
     21 N           1.6934    1.1859    0.0078 N.ar    1  UNL1       -0.3293
     22 C           2.7398    0.4776    0.6731 C.3     1  UNL1        0.0275
     23 C           3.0310   -0.8009   -0.0750 C.3     1  UNL1       -0.0230
     24 C           3.9930   -1.7515    0.5119 C.3     1  UNL1       -0.0486
     25 C           5.1386   -1.0472   -0.0938 C.3     1  UNL1       -0.0524
     26 C           4.1530   -0.4870   -1.1354 C.3     1  UNL1       -0.0486
     27 C          -1.4529   -0.7636    0.2309 C.ar    1  UNL1        0.0216
     28 N          -2.0165   -1.8410    0.7560 N.ar    1  UNL1       -0.2906
     29 H          -3.9082   -4.4963    1.2592 H       1  UNL1        0.0859
     30 H          -0.0756   -2.2682    3.3426 H       1  UNL1        0.0654
     31 H           0.7893   -0.1083    2.6176 H       1  UNL1        0.0626
     32 H          -1.6642    2.4434   -3.0901 H       1  UNL1        0.0625
     33 H          -4.0141    2.9108   -3.2208 H       1  UNL1        0.0646
     34 H          -4.3282    2.6878    1.0617 H       1  UNL1        0.0646
     35 H          -1.9211    2.1995    1.1445 H       1  UNL1        0.0625
     36 H           2.9481    2.3599   -1.2557 H       1  UNL1        0.1029
     37 H           3.7064    1.1294    0.6114 H       1  UNL1        0.0495
     38 H           2.6455    0.3923    1.7575 H       1  UNL1        0.0495
     39 H           2.1963   -1.1826   -0.6799 H       1  UNL1        0.0318
     40 H           3.9457   -1.8174    1.6419 H       1  UNL1        0.0268
     41 H           3.9377   -2.8264    0.1325 H       1  UNL1        0.0268
     42 H           5.9351   -1.6446   -0.5382 H       1  UNL1        0.0265
     43 H           5.5070   -0.2187    0.5599 H       1  UNL1        0.0265
     44 H           4.2122    0.6441   -1.1281 H       1  UNL1        0.0268
     45 H           4.0559   -1.0083   -2.0481 H       1  UNL1        0.0268
     46 H          -1.8581   -0.3500   -0.7014 H       1  UNL1        0.0820
@<TRIPOS>BOND
     1     1     2    3
     2     2     3    1
     3     3     4   ar
     4     4     5   ar
     5     5     6   ar
     6     6     7   ar
     7     7     8   ar
     8     8     9   ar
     9     9    10    1
    10    10    11   ar
    11    11    12    1
    12    12    13   ar
    13    13    14   ar
    14    14    15   ar
    15    15    16    1
    16    15    17   ar
    17    17    18   ar
    18    11    19   ar
    19    19    20   ar
    20    20    21   ar
    21    21    22    1
    22    22    23    1
    23    23    24    1
    24    24    25    1
    25    25    26    1
    26     9    27   ar
    27    27    28   ar
    28    28     3   ar
    29    28     6   ar
    30    21    10   ar
    31    26    23    1
    32    18    12   ar
    33     4    29    1
    34     7    30    1
    35     8    31    1
    36    13    32    1
    37    14    33    1
    38    17    34    1
    39    18    35    1
    40    20    36    1
    41    22    37    1
    42    22    38    1
    43    23    39    1
    44    24    40    1
    45    24    41    1
    46    25    42    1
    47    25    43    1
    48    26    44    1
    49    26    45    1
    50    27    46    1
