@<TRIPOS>MOLECULE
*****
 70 73 0 0 0
SMALL
GASTEIGER

@<TRIPOS>ATOM
      1 C          -0.3346   -0.5942   -0.8849 C.3     1  UNL1       -0.0254
      2 C           0.5855   -1.6117   -1.4125 C.3     1  UNL1       -0.0452
      3 C           1.7882   -0.6879   -1.6749 C.3     1  UNL1       -0.0048
      4 C           1.8101    0.2213   -0.4377 C.3     1  UNL1        0.1796
      5 O           1.8952    1.5814   -0.8399 O.3     1  UNL1       -0.4496
      6 C           2.9357    2.1227   -1.5713 C.2     1  UNL1        0.3080
      7 O           3.9238    1.4652   -1.9502 O.2     1  UNL1       -0.2508
      8 C           2.9209    3.5573   -1.9484 C.3     1  UNL1        0.0447
      9 C           4.2137    4.2216   -1.4528 C.3     1  UNL1       -0.0458
     10 C           4.2779    4.1060    0.0758 C.3     1  UNL1       -0.0648
     11 C           2.9741   -0.0952    0.4207 C.2     1  UNL1        0.2142
     12 O           3.5836    0.9665    0.5816 O.2     1  UNL1       -0.2895
     13 C           3.7419   -1.0857    1.1697 C.3     1  UNL1        0.1542
     14 O           3.2161   -2.4180    1.0891 O.3     1  UNL1       -0.4570
     15 C           3.9126   -3.3990    1.7786 C.2     1  UNL1        0.3043
     16 C           3.4660   -4.8099    1.7705 C.3     1  UNL1        0.0332
     17 O           4.9382   -3.0308    2.4083 O.2     1  UNL1       -0.2512
     18 C           0.4754    0.0322    0.2265 C.3     1  UNL1        0.0205
     19 C           0.5922   -0.8180    1.4538 C.3     1  UNL1       -0.0551
     20 C          -0.2280    1.2855    0.5992 C.3     1  UNL1       -0.0141
     21 C          -1.6595    1.4210    0.2809 C.3     1  UNL1        0.0910
     22 O          -2.2895    1.9844    1.4229 O.3     1  UNL1       -0.3886
     23 C          -2.4184    0.2285   -0.2037 C.3     1  UNL1        0.1528
     24 F          -2.7306    0.4389   -1.5615 F       1  UNL1       -0.2377
     25 C          -1.5942   -1.0341   -0.2208 C.3     1  UNL1        0.0030
     26 C          -2.3367   -2.0977   -0.9750 C.3     1  UNL1       -0.0117
     27 C          -3.5771   -2.3641   -0.1053 C.3     1  UNL1        0.1237
     28 F          -4.2587   -3.4561   -0.5475 F       1  UNL1       -0.2407
     29 C          -4.4218   -1.1203   -0.2207 C.2     1  UNL1       -0.0198
     30 C          -5.5761   -1.2290   -0.8603 C.2     1  UNL1       -0.0121
     31 C          -6.3221    0.0208   -0.9231 C.2     1  UNL1        0.1788
     32 O          -7.4207   -0.0442   -1.5214 O.2     1  UNL1       -0.2879
     33 C          -5.7662    1.2358   -0.3061 C.2     1  UNL1       -0.0179
     34 C          -4.5930    1.2363    0.3154 C.2     1  UNL1       -0.0674
     35 C          -3.7333    0.0102    0.4455 C.3     1  UNL1        0.0469
     36 C          -3.6851   -0.2916    1.9263 C.3     1  UNL1       -0.0492
     37 H          -0.4862    0.1786   -1.6598 H       1  UNL1        0.0311
     38 H           0.8524   -2.4476   -0.7635 H       1  UNL1        0.0270
     39 H           0.2484   -2.0470   -2.3764 H       1  UNL1        0.0270
     40 H           1.4917   -0.0564   -2.5384 H       1  UNL1        0.0308
     41 H           2.7279   -1.2445   -1.8062 H       1  UNL1        0.0308
     42 H           2.8290    3.7050   -3.0478 H       1  UNL1        0.0377
     43 H           2.0738    4.0623   -1.4260 H       1  UNL1        0.0377
     44 H           5.1157    3.6911   -1.8356 H       1  UNL1        0.0268
     45 H           4.2748    5.2647   -1.7599 H       1  UNL1        0.0268
     46 H           4.4992    5.1184    0.4742 H       1  UNL1        0.0230
     47 H           3.2848    3.7655    0.4393 H       1  UNL1        0.0230
     48 H           5.0763    3.4309    0.4118 H       1  UNL1        0.0230
     49 H           4.7715   -1.1791    0.7527 H       1  UNL1        0.0780
     50 H           3.8682   -0.8191    2.2452 H       1  UNL1        0.0780
     51 H           4.3007   -5.5153    1.5835 H       1  UNL1        0.0342
     52 H           2.9628   -5.0606    2.7262 H       1  UNL1        0.0342
     53 H           2.7162   -4.9712    0.9854 H       1  UNL1        0.0342
     54 H           0.5393   -1.8943    1.3001 H       1  UNL1        0.0237
     55 H          -0.2399   -0.5439    2.1745 H       1  UNL1        0.0237
     56 H           1.5072   -0.4883    1.9952 H       1  UNL1        0.0237
     57 H           0.3699    2.1282    0.1316 H       1  UNL1        0.0298
     58 H          -0.0665    1.4832    1.7065 H       1  UNL1        0.0298
     59 H          -1.7591    2.2547   -0.4806 H       1  UNL1        0.0626
     60 H          -2.1306    2.9587    1.4820 H       1  UNL1        0.2099
     61 H          -1.4674   -1.3820    0.8008 H       1  UNL1        0.0336
     62 H          -1.7295   -3.0009   -1.0357 H       1  UNL1        0.0300
     63 H          -2.6789   -1.6842   -1.9297 H       1  UNL1        0.0300
     64 H          -3.2524   -2.5302    0.9380 H       1  UNL1        0.0699
     65 H          -5.8573   -2.1824   -1.2638 H       1  UNL1        0.0656
     66 H          -6.4469    2.0673   -0.4462 H       1  UNL1        0.0653
     67 H          -4.4310    2.2432    0.6696 H       1  UNL1        0.0583
     68 H          -2.8722   -0.9910    2.2136 H       1  UNL1        0.0242
     69 H          -3.7545    0.5935    2.5715 H       1  UNL1        0.0242
     70 H          -4.6427   -0.8558    2.1399 H       1  UNL1        0.0242
@<TRIPOS>BOND
     1     1     2    1
     2     2     3    1
     3     3     4    1
     4     4     5    1
     5     5     6    1
     6     6     7    2
     7     6     8    1
     8     8     9    1
     9     9    10    1
    10     4    11    1
    11    11    12    2
    12    11    13    1
    13    13    14    1
    14    14    15    1
    15    15    16    1
    16    15    17    2
    17     4    18    1
    18    18    19    1
    19    18    20    1
    20    20    21    1
    21    21    22    1
    22    21    23    1
    23    23    24    1
    24    23    25    1
    25    25    26    1
    26    26    27    1
    27    27    28    1
    28    27    29    1
    29    29    30    2
    30    30    31    1
    31    31    32    2
    32    31    33    1
    33    33    34    2
    34    34    35    1
    35    35    36    1
    36    18     1    1
    37    35    23    1
    38    25     1    1
    39    35    29    1
    40     1    37    1
    41     2    38    1
    42     2    39    1
    43     3    40    1
    44     3    41    1
    45     8    42    1
    46     8    43    1
    47     9    44    1
    48     9    45    1
    49    10    46    1
    50    10    47    1
    51    10    48    1
    52    13    49    1
    53    13    50    1
    54    16    51    1
    55    16    52    1
    56    16    53    1
    57    19    54    1
    58    19    55    1
    59    19    56    1
    60    20    57    1
    61    20    58    1
    62    21    59    1
    63    22    60    1
    64    25    61    1
    65    26    62    1
    66    26    63    1
    67    27    64    1
    68    30    65    1
    69    33    66    1
    70    34    67    1
    71    36    68    1
    72    36    69    1
    73    36    70    1
