
     RDKit          3D

 70 73  0  0  0  0  0  0  0  0999 V2000
   -0.3346   -0.5942   -0.8849 C   0  0  2  0  0  0  0  0  0  0  0  0
    0.5855   -1.6117   -1.4125 C   0  0  0  0  0  0  0  0  0  0  0  0
    1.7882   -0.6879   -1.6749 C   0  0  0  0  0  0  0  0  0  0  0  0
    1.8101    0.2213   -0.4377 C   0  0  2  0  0  0  0  0  0  0  0  0
    1.8952    1.5814   -0.8399 O   0  0  0  0  0  0  0  0  0  0  0  0
    2.9357    2.1227   -1.5713 C   0  0  0  0  0  0  0  0  0  0  0  0
    3.9238    1.4652   -1.9502 O   0  0  0  0  0  0  0  0  0  0  0  0
    2.9209    3.5573   -1.9484 C   0  0  0  0  0  0  0  0  0  0  0  0
    4.2137    4.2216   -1.4528 C   0  0  0  0  0  0  0  0  0  0  0  0
    4.2779    4.1060    0.0758 C   0  0  0  0  0  0  0  0  0  0  0  0
    2.9741   -0.0952    0.4207 C   0  0  0  0  0  0  0  0  0  0  0  0
    3.5836    0.9665    0.5816 O   0  0  0  0  0  0  0  0  0  0  0  0
    3.7419   -1.0857    1.1697 C   0  0  0  0  0  0  0  0  0  0  0  0
    3.2161   -2.4180    1.0891 O   0  0  0  0  0  0  0  0  0  0  0  0
    3.9126   -3.3990    1.7786 C   0  0  0  0  0  0  0  0  0  0  0  0
    3.4660   -4.8099    1.7705 C   0  0  0  0  0  0  0  0  0  0  0  0
    4.9382   -3.0308    2.4083 O   0  0  0  0  0  0  0  0  0  0  0  0
    0.4754    0.0322    0.2265 C   0  0  2  0  0  0  0  0  0  0  0  0
    0.5922   -0.8180    1.4538 C   0  0  0  0  0  0  0  0  0  0  0  0
   -0.2280    1.2855    0.5992 C   0  0  0  0  0  0  0  0  0  0  0  0
   -1.6595    1.4210    0.2809 C   0  0  2  0  0  0  0  0  0  0  0  0
   -2.2895    1.9844    1.4229 O   0  0  0  0  0  0  0  0  0  0  0  0
   -2.4184    0.2285   -0.2037 C   0  0  1  0  0  0  0  0  0  0  0  0
   -2.7306    0.4389   -1.5615 F   0  0  0  0  0  0  0  0  0  0  0  0
   -1.5942   -1.0341   -0.2208 C   0  0  1  0  0  0  0  0  0  0  0  0
   -2.3367   -2.0977   -0.9750 C   0  0  0  0  0  0  0  0  0  0  0  0
   -3.5771   -2.3641   -0.1053 C   0  0  2  0  0  0  0  0  0  0  0  0
   -4.2587   -3.4561   -0.5475 F   0  0  0  0  0  0  0  0  0  0  0  0
   -4.4218   -1.1203   -0.2207 C   0  0  0  0  0  0  0  0  0  0  0  0
   -5.5761   -1.2290   -0.8603 C   0  0  0  0  0  0  0  0  0  0  0  0
   -6.3221    0.0208   -0.9231 C   0  0  0  0  0  0  0  0  0  0  0  0
   -7.4207   -0.0442   -1.5214 O   0  0  0  0  0  0  0  0  0  0  0  0
   -5.7662    1.2358   -0.3061 C   0  0  0  0  0  0  0  0  0  0  0  0
   -4.5930    1.2363    0.3154 C   0  0  0  0  0  0  0  0  0  0  0  0
   -3.7333    0.0102    0.4455 C   0  0  2  0  0  0  0  0  0  0  0  0
   -3.6851   -0.2916    1.9263 C   0  0  0  0  0  0  0  0  0  0  0  0
   -0.4862    0.1786   -1.6598 H   0  0  0  0  0  0  0  0  0  0  0  0
    0.8524   -2.4476   -0.7635 H   0  0  0  0  0  0  0  0  0  0  0  0
    0.2484   -2.0470   -2.3764 H   0  0  0  0  0  0  0  0  0  0  0  0
    1.4917   -0.0564   -2.5384 H   0  0  0  0  0  0  0  0  0  0  0  0
    2.7279   -1.2445   -1.8062 H   0  0  0  0  0  0  0  0  0  0  0  0
    2.8290    3.7050   -3.0478 H   0  0  0  0  0  0  0  0  0  0  0  0
    2.0738    4.0623   -1.4260 H   0  0  0  0  0  0  0  0  0  0  0  0
    5.1157    3.6911   -1.8356 H   0  0  0  0  0  0  0  0  0  0  0  0
    4.2748    5.2647   -1.7599 H   0  0  0  0  0  0  0  0  0  0  0  0
    4.4992    5.1184    0.4742 H   0  0  0  0  0  0  0  0  0  0  0  0
    3.2848    3.7655    0.4393 H   0  0  0  0  0  0  0  0  0  0  0  0
    5.0763    3.4309    0.4118 H   0  0  0  0  0  0  0  0  0  0  0  0
    4.7715   -1.1791    0.7527 H   0  0  0  0  0  0  0  0  0  0  0  0
    3.8682   -0.8191    2.2452 H   0  0  0  0  0  0  0  0  0  0  0  0
    4.3007   -5.5153    1.5835 H   0  0  0  0  0  0  0  0  0  0  0  0
    2.9628   -5.0606    2.7262 H   0  0  0  0  0  0  0  0  0  0  0  0
    2.7162   -4.9712    0.9854 H   0  0  0  0  0  0  0  0  0  0  0  0
    0.5393   -1.8943    1.3001 H   0  0  0  0  0  0  0  0  0  0  0  0
   -0.2399   -0.5439    2.1745 H   0  0  0  0  0  0  0  0  0  0  0  0
    1.5072   -0.4883    1.9952 H   0  0  0  0  0  0  0  0  0  0  0  0
    0.3699    2.1282    0.1316 H   0  0  0  0  0  0  0  0  0  0  0  0
   -0.0665    1.4832    1.7065 H   0  0  0  0  0  0  0  0  0  0  0  0
   -1.7591    2.2547   -0.4806 H   0  0  0  0  0  0  0  0  0  0  0  0
   -2.1306    2.9587    1.4820 H   0  0  0  0  0  0  0  0  0  0  0  0
   -1.4674   -1.3820    0.8008 H   0  0  0  0  0  0  0  0  0  0  0  0
   -1.7295   -3.0009   -1.0357 H   0  0  0  0  0  0  0  0  0  0  0  0
   -2.6789   -1.6842   -1.9297 H   0  0  0  0  0  0  0  0  0  0  0  0
   -3.2524   -2.5302    0.9380 H   0  0  0  0  0  0  0  0  0  0  0  0
   -5.8573   -2.1824   -1.2638 H   0  0  0  0  0  0  0  0  0  0  0  0
   -6.4469    2.0673   -0.4462 H   0  0  0  0  0  0  0  0  0  0  0  0
   -4.4310    2.2432    0.6696 H   0  0  0  0  0  0  0  0  0  0  0  0
   -2.8722   -0.9910    2.2136 H   0  0  0  0  0  0  0  0  0  0  0  0
   -3.7545    0.5935    2.5715 H   0  0  0  0  0  0  0  0  0  0  0  0
   -4.6427   -0.8558    2.1399 H   0  0  0  0  0  0  0  0  0  0  0  0
  1  2  1  0
  2  3  1  0
  3  4  1  0
  4  5  1  6
  5  6  1  0
  6  7  2  0
  6  8  1  0
  8  9  1  0
  9 10  1  0
  4 11  1  0
 11 12  2  0
 11 13  1  0
 13 14  1  0
 14 15  1  0
 15 16  1  0
 15 17  2  0
  4 18  1  0
 18 19  1  1
 18 20  1  0
 20 21  1  0
 21 22  1  0
 21 23  1  0
 23 24  1  6
 23 25  1  0
 25 26  1  0
 26 27  1  0
 27 28  1  0
 27 29  1  0
 29 30  2  0
 30 31  1  0
 31 32  2  0
 31 33  1  0
 33 34  2  0
 34 35  1  0
 35 36  1  1
 18  1  1  0
 35 23  1  0
 25  1  1  0
 35 29  1  0
  1 37  1  6
  2 38  1  0
  2 39  1  0
  3 40  1  0
  3 41  1  0
  8 42  1  0
  8 43  1  0
  9 44  1  0
  9 45  1  0
 10 46  1  0
 10 47  1  0
 10 48  1  0
 13 49  1  0
 13 50  1  0
 16 51  1  0
 16 52  1  0
 16 53  1  0
 19 54  1  0
 19 55  1  0
 19 56  1  0
 20 57  1  0
 20 58  1  0
 21 59  1  6
 22 60  1  0
 25 61  1  1
 26 62  1  0
 26 63  1  0
 27 64  1  1
 30 65  1  0
 33 66  1  0
 34 67  1  0
 36 68  1  0
 36 69  1  0
 36 70  1  0
M  END
$$$$
