
     RDKit          3D

 76 80  0  0  0  0  0  0  0  0999 V2000
   -4.2061    3.5910    3.8748 C   0  0  0  0  0  0  0  0  0  0  0  0
   -4.3568    2.5275    2.8483 C   0  0  0  0  0  0  0  0  0  0  0  0
   -5.1736    1.4426    3.0912 C   0  0  0  0  0  0  0  0  0  0  0  0
   -5.3122    0.4574    2.1346 C   0  0  0  0  0  0  0  0  0  0  0  0
   -4.6606    0.5036    0.9201 C   0  0  0  0  0  0  0  0  0  0  0  0
   -4.7886   -0.5009   -0.0834 N   0  0  0  0  0  0  0  0  0  0  0  0
   -5.7687   -0.6510   -0.9762 N   0  0  0  0  0  0  0  0  0  0  0  0
   -5.5331   -1.7126   -1.7518 C   0  0  0  0  0  0  0  0  0  0  0  0
   -6.3854   -2.2254   -2.8734 C   0  0  0  0  0  0  0  0  0  0  0  0
   -7.5998   -1.3771   -3.0593 C   0  0  0  0  0  0  0  0  0  0  0  0
   -6.8587   -3.6140   -2.4687 C   0  0  0  0  0  0  0  0  0  0  0  0
   -5.6056   -2.3130   -4.1530 C   0  0  0  0  0  0  0  0  0  0  0  0
   -4.3406   -2.2520   -1.3172 C   0  0  0  0  0  0  0  0  0  0  0  0
   -3.8784   -1.4770   -0.2610 C   0  0  0  0  0  0  0  0  0  0  0  0
   -2.6694   -1.7265    0.4454 N   0  0  0  0  0  0  0  0  0  0  0  0
   -1.4488   -1.1296    0.0267 C   0  0  0  0  0  0  0  0  0  0  0  0
   -1.4086   -0.3602   -0.9834 O   0  0  0  0  0  0  0  0  0  0  0  0
   -0.2129   -1.3477    0.6965 N   0  0  0  0  0  0  0  0  0  0  0  0
    0.9958   -0.7394    0.2655 C   0  0  0  0  0  0  0  0  0  0  0  0
    1.8663   -1.2718   -0.6396 C   0  0  0  0  0  0  0  0  0  0  0  0
    3.0414   -0.6247   -1.0220 C   0  0  0  0  0  0  0  0  0  0  0  0
    3.3317    0.5954   -0.4638 C   0  0  0  0  0  0  0  0  0  0  0  0
    4.4466    1.3297   -0.7551 O   0  0  0  0  0  0  0  0  0  0  0  0
    5.4989    1.0676   -1.5882 C   0  0  0  0  0  0  0  0  0  0  0  0
    6.3730   -0.0987   -1.2621 C   0  0  0  0  0  0  0  0  0  0  0  0
    6.9502    0.1265    0.0591 N   0  0  0  0  0  0  0  0  0  0  0  0
    7.8932    1.2297    0.0661 C   0  0  0  0  0  0  0  0  0  0  0  0
    8.6595    1.1725    1.3645 C   0  0  0  0  0  0  0  0  0  0  0  0
    9.4749    0.0640    1.4196 O   0  0  0  0  0  0  0  0  0  0  0  0
    9.0109   -1.0353    0.7420 C   0  0  0  0  0  0  0  0  0  0  0  0
    7.5268   -1.0890    0.5591 C   0  0  0  0  0  0  0  0  0  0  0  0
    2.4580    1.1762    0.4725 C   0  0  0  0  0  0  0  0  0  0  0  0
    2.7586    2.4143    1.0339 C   0  0  0  0  0  0  0  0  0  0  0  0
    1.9076    2.9832    1.9480 C   0  0  0  0  0  0  0  0  0  0  0  0
    0.7545    2.3230    2.3074 C   0  0  0  0  0  0  0  0  0  0  0  0
    0.4688    1.0972    1.7436 C   0  0  0  0  0  0  0  0  0  0  0  0
    1.3184    0.4932    0.8088 C   0  0  0  0  0  0  0  0  0  0  0  0
   -3.8365    1.6002    0.6777 C   0  0  0  0  0  0  0  0  0  0  0  0
   -3.7018    2.5858    1.6426 C   0  0  0  0  0  0  0  0  0  0  0  0
   -3.2634    4.1340    3.6979 H   0  0  0  0  0  0  0  0  0  0  0  0
   -5.0891    4.2771    3.7588 H   0  0  0  0  0  0  0  0  0  0  0  0
   -4.2895    3.1823    4.9099 H   0  0  0  0  0  0  0  0  0  0  0  0
   -5.6851    1.4070    4.0471 H   0  0  0  0  0  0  0  0  0  0  0  0
   -5.9547   -0.3906    2.3314 H   0  0  0  0  0  0  0  0  0  0  0  0
   -7.3904   -0.4684   -3.6630 H   0  0  0  0  0  0  0  0  0  0  0  0
   -8.4084   -1.9815   -3.4745 H   0  0  0  0  0  0  0  0  0  0  0  0
   -7.9314   -1.0314   -2.0504 H   0  0  0  0  0  0  0  0  0  0  0  0
   -7.2844   -4.1546   -3.3232 H   0  0  0  0  0  0  0  0  0  0  0  0
   -6.0863   -4.1776   -1.9148 H   0  0  0  0  0  0  0  0  0  0  0  0
   -7.7038   -3.4428   -1.7503 H   0  0  0  0  0  0  0  0  0  0  0  0
   -5.2868   -1.3365   -4.5168 H   0  0  0  0  0  0  0  0  0  0  0  0
   -4.7351   -3.0021   -4.0713 H   0  0  0  0  0  0  0  0  0  0  0  0
   -6.2800   -2.7864   -4.9076 H   0  0  0  0  0  0  0  0  0  0  0  0
   -3.8703   -3.1379   -1.7529 H   0  0  0  0  0  0  0  0  0  0  0  0
   -2.6719   -2.3624    1.2902 H   0  0  0  0  0  0  0  0  0  0  0  0
   -0.1724   -1.9703    1.5327 H   0  0  0  0  0  0  0  0  0  0  0  0
    1.6284   -2.2373   -1.0746 H   0  0  0  0  0  0  0  0  0  0  0  0
    3.6718   -1.0932   -1.7525 H   0  0  0  0  0  0  0  0  0  0  0  0
    6.1407    1.9880   -1.7319 H   0  0  0  0  0  0  0  0  0  0  0  0
    5.0651    0.9252   -2.6280 H   0  0  0  0  0  0  0  0  0  0  0  0
    7.2024   -0.1749   -2.0004 H   0  0  0  0  0  0  0  0  0  0  0  0
    5.8662   -1.0561   -1.2162 H   0  0  0  0  0  0  0  0  0  0  0  0
    7.3632    2.2125    0.0113 H   0  0  0  0  0  0  0  0  0  0  0  0
    8.6140    1.2004   -0.7546 H   0  0  0  0  0  0  0  0  0  0  0  0
    9.3401    2.0722    1.3553 H   0  0  0  0  0  0  0  0  0  0  0  0
    7.9924    1.2719    2.2434 H   0  0  0  0  0  0  0  0  0  0  0  0
    9.2874   -1.9367    1.3639 H   0  0  0  0  0  0  0  0  0  0  0  0
    9.5774   -1.1585   -0.2120 H   0  0  0  0  0  0  0  0  0  0  0  0
    7.0687   -1.3015    1.5534 H   0  0  0  0  0  0  0  0  0  0  0  0
    7.3222   -1.9120   -0.1659 H   0  0  0  0  0  0  0  0  0  0  0  0
    3.6626    2.9167    0.7425 H   0  0  0  0  0  0  0  0  0  0  0  0
    2.0902    3.9421    2.4151 H   0  0  0  0  0  0  0  0  0  0  0  0
    0.0435    2.7149    3.0204 H   0  0  0  0  0  0  0  0  0  0  0  0
   -0.4316    0.5527    2.0065 H   0  0  0  0  0  0  0  0  0  0  0  0
   -3.3221    1.6393   -0.2774 H   0  0  0  0  0  0  0  0  0  0  0  0
   -3.0682    3.4411    1.4690 H   0  0  0  0  0  0  0  0  0  0  0  0
  1  2  1  0
  2  3  2  0
  3  4  1  0
  4  5  2  0
  5  6  1  0
  6  7  1  0
  7  8  2  0
  8  9  1  0
  9 10  1  0
  9 11  1  0
  9 12  1  0
  8 13  1  0
 13 14  2  0
 14 15  1  0
 15 16  1  0
 16 17  2  0
 16 18  1  0
 18 19  1  0
 19 20  2  0
 20 21  1  0
 21 22  2  0
 22 23  1  0
 23 24  1  0
 24 25  1  0
 25 26  1  0
 26 27  1  0
 27 28  1  0
 28 29  1  0
 29 30  1  0
 30 31  1  0
 22 32  1  0
 32 33  2  0
 33 34  1  0
 34 35  2  0
 35 36  1  0
 36 37  2  0
  5 38  1  0
 38 39  2  0
 39  2  1  0
 14  6  1  0
 37 19  1  0
 31 26  1  0
 37 32  1  0
  1 40  1  0
  1 41  1  0
  1 42  1  0
  3 43  1  0
  4 44  1  0
 10 45  1  0
 10 46  1  0
 10 47  1  0
 11 48  1  0
 11 49  1  0
 11 50  1  0
 12 51  1  0
 12 52  1  0
 12 53  1  0
 13 54  1  0
 15 55  1  0
 18 56  1  0
 20 57  1  0
 21 58  1  0
 24 59  1  0
 24 60  1  0
 25 61  1  0
 25 62  1  0
 27 63  1  0
 27 64  1  0
 28 65  1  0
 28 66  1  0
 30 67  1  0
 30 68  1  0
 31 69  1  0
 31 70  1  0
 33 71  1  0
 34 72  1  0
 35 73  1  0
 36 74  1  0
 38 75  1  0
 39 76  1  0
M  END
$$$$
