@<TRIPOS>MOLECULE
*****
 76 80 0 0 0
SMALL
GASTEIGER

@<TRIPOS>ATOM
      1 C          -4.2061    3.5910    3.8748 C.3     1  UNL1       -0.0397
      2 C          -4.3568    2.5275    2.8483 C.ar    1  UNL1       -0.0503
      3 C          -5.1736    1.4426    3.0912 C.ar    1  UNL1       -0.0568
      4 C          -5.3122    0.4574    2.1346 C.ar    1  UNL1       -0.0359
      5 C          -4.6606    0.5036    0.9201 C.ar    1  UNL1        0.0674
      6 N          -4.7886   -0.5009   -0.0834 N.ar    1  UNL1       -0.2181
      7 N          -5.7687   -0.6510   -0.9762 N.ar    1  UNL1       -0.1691
      8 C          -5.5331   -1.7126   -1.7518 C.ar    1  UNL1        0.0706
      9 C          -6.3854   -2.2254   -2.8734 C.3     1  UNL1        0.0063
     10 C          -7.5998   -1.3771   -3.0593 C.3     1  UNL1       -0.0546
     11 C          -6.8587   -3.6140   -2.4687 C.3     1  UNL1       -0.0546
     12 C          -5.6056   -2.3130   -4.1530 C.3     1  UNL1       -0.0546
     13 C          -4.3406   -2.2520   -1.3172 C.ar    1  UNL1        0.0021
     14 C          -3.8784   -1.4770   -0.2610 C.ar    1  UNL1        0.1299
     15 N          -2.6694   -1.7265    0.4454 N.am    1  UNL1       -0.2538
     16 C          -1.4488   -1.1296    0.0267 C.2     1  UNL1        0.3092
     17 O          -1.4086   -0.3602   -0.9834 O.2     1  UNL1       -0.2521
     18 N          -0.2129   -1.3477    0.6965 N.am    1  UNL1       -0.2686
     19 C           0.9958   -0.7394    0.2655 C.ar    1  UNL1        0.0427
     20 C           1.8663   -1.2718   -0.6396 C.ar    1  UNL1       -0.0364
     21 C           3.0414   -0.6247   -1.0220 C.ar    1  UNL1       -0.0176
     22 C           3.3317    0.5954   -0.4638 C.ar    1  UNL1        0.1283
     23 O           4.4466    1.3297   -0.7551 O.3     1  UNL1       -0.4901
     24 C           5.4989    1.0676   -1.5882 C.3     1  UNL1        0.1023
     25 C           6.3730   -0.0987   -1.2621 C.3     1  UNL1        0.0333
     26 N           6.9502    0.1265    0.0591 N.3     1  UNL1       -0.2948
     27 C           7.8932    1.2297    0.0661 C.3     1  UNL1        0.0225
     28 C           8.6595    1.1725    1.3645 C.3     1  UNL1        0.0604
     29 O           9.4749    0.0640    1.4196 O.3     1  UNL1       -0.3772
     30 C           9.0109   -1.0353    0.7420 C.3     1  UNL1        0.0604
     31 C           7.5268   -1.0890    0.5591 C.3     1  UNL1        0.0225
     32 C           2.4580    1.1762    0.4725 C.ar    1  UNL1        0.0256
     33 C           2.7586    2.4143    1.0339 C.ar    1  UNL1       -0.0505
     34 C           1.9076    2.9832    1.9480 C.ar    1  UNL1       -0.0611
     35 C           0.7545    2.3230    2.3074 C.ar    1  UNL1       -0.0611
     36 C           0.4688    1.0972    1.7436 C.ar    1  UNL1       -0.0521
     37 C           1.3184    0.4932    0.8088 C.ar    1  UNL1        0.0069
     38 C          -3.8365    1.6002    0.6777 C.ar    1  UNL1       -0.0359
     39 C          -3.7018    2.5858    1.6426 C.ar    1  UNL1       -0.0568
     40 H          -3.2634    4.1340    3.6979 H       1  UNL1        0.0278
     41 H          -5.0891    4.2771    3.7588 H       1  UNL1        0.0278
     42 H          -4.2895    3.1823    4.9099 H       1  UNL1        0.0278
     43 H          -5.6851    1.4070    4.0471 H       1  UNL1        0.0621
     44 H          -5.9547   -0.3906    2.3314 H       1  UNL1        0.0639
     45 H          -7.3904   -0.4684   -3.6630 H       1  UNL1        0.0239
     46 H          -8.4084   -1.9815   -3.4745 H       1  UNL1        0.0239
     47 H          -7.9314   -1.0314   -2.0504 H       1  UNL1        0.0239
     48 H          -7.2844   -4.1546   -3.3232 H       1  UNL1        0.0239
     49 H          -6.0863   -4.1776   -1.9148 H       1  UNL1        0.0239
     50 H          -7.7038   -3.4428   -1.7503 H       1  UNL1        0.0239
     51 H          -5.2868   -1.3365   -4.5168 H       1  UNL1        0.0239
     52 H          -4.7351   -3.0021   -4.0713 H       1  UNL1        0.0239
     53 H          -6.2800   -2.7864   -4.9076 H       1  UNL1        0.0239
     54 H          -3.8703   -3.1379   -1.7529 H       1  UNL1        0.0671
     55 H          -2.6719   -2.3624    1.2902 H       1  UNL1        0.1578
     56 H          -0.1724   -1.9703    1.5327 H       1  UNL1        0.1564
     57 H           1.6284   -2.2373   -1.0746 H       1  UNL1        0.0637
     58 H           3.6718   -1.0932   -1.7525 H       1  UNL1        0.0655
     59 H           6.1407    1.9880   -1.7319 H       1  UNL1        0.0709
     60 H           5.0651    0.9252   -2.6280 H       1  UNL1        0.0709
     61 H           7.2024   -0.1749   -2.0004 H       1  UNL1        0.0460
     62 H           5.8662   -1.0561   -1.2162 H       1  UNL1        0.0460
     63 H           7.3632    2.2125    0.0113 H       1  UNL1        0.0449
     64 H           8.6140    1.2004   -0.7546 H       1  UNL1        0.0449
     65 H           9.3401    2.0722    1.3553 H       1  UNL1        0.0572
     66 H           7.9924    1.2719    2.2434 H       1  UNL1        0.0572
     67 H           9.2874   -1.9367    1.3639 H       1  UNL1        0.0572
     68 H           9.5774   -1.1585   -0.2120 H       1  UNL1        0.0572
     69 H           7.0687   -1.3015    1.5534 H       1  UNL1        0.0449
     70 H           7.3222   -1.9120   -0.1659 H       1  UNL1        0.0449
     71 H           3.6626    2.9167    0.7425 H       1  UNL1        0.0625
     72 H           2.0902    3.9421    2.4151 H       1  UNL1        0.0618
     73 H           0.0435    2.7149    3.0204 H       1  UNL1        0.0618
     74 H          -0.4316    0.5527    2.0065 H       1  UNL1        0.0624
     75 H          -3.3221    1.6393   -0.2774 H       1  UNL1        0.0639
     76 H          -3.0682    3.4411    1.4690 H       1  UNL1        0.0621
@<TRIPOS>BOND
     1     1     2    1
     2     2     3   ar
     3     3     4   ar
     4     4     5   ar
     5     5     6    1
     6     6     7   ar
     7     7     8   ar
     8     8     9    1
     9     9    10    1
    10     9    11    1
    11     9    12    1
    12     8    13   ar
    13    13    14   ar
    14    14    15    1
    15    15    16   am
    16    16    17    2
    17    16    18   am
    18    18    19    1
    19    19    20   ar
    20    20    21   ar
    21    21    22   ar
    22    22    23    1
    23    23    24    1
    24    24    25    1
    25    25    26    1
    26    26    27    1
    27    27    28    1
    28    28    29    1
    29    29    30    1
    30    30    31    1
    31    22    32   ar
    32    32    33   ar
    33    33    34   ar
    34    34    35   ar
    35    35    36   ar
    36    36    37   ar
    37     5    38   ar
    38    38    39   ar
    39    39     2   ar
    40    14     6   ar
    41    37    19   ar
    42    31    26    1
    43    37    32   ar
    44     1    40    1
    45     1    41    1
    46     1    42    1
    47     3    43    1
    48     4    44    1
    49    10    45    1
    50    10    46    1
    51    10    47    1
    52    11    48    1
    53    11    49    1
    54    11    50    1
    55    12    51    1
    56    12    52    1
    57    12    53    1
    58    13    54    1
    59    15    55    1
    60    18    56    1
    61    20    57    1
    62    21    58    1
    63    24    59    1
    64    24    60    1
    65    25    61    1
    66    25    62    1
    67    27    63    1
    68    27    64    1
    69    28    65    1
    70    28    66    1
    71    30    67    1
    72    30    68    1
    73    31    69    1
    74    31    70    1
    75    33    71    1
    76    34    72    1
    77    35    73    1
    78    36    74    1
    79    38    75    1
    80    39    76    1
