@<TRIPOS>MOLECULE
*****
 50 50 0 0 0
SMALL
GASTEIGER

@<TRIPOS>ATOM
      1 C           5.4837    1.7734    2.1765 C.3     1  UNL1       -0.0652
      2 C           4.7907    0.5301    1.5860 C.3     1  UNL1       -0.0528
      3 C           5.7311   -0.0314    0.5904 C.3     1  UNL1       -0.0189
      4 C           5.3379   -1.2593   -0.1392 C.3     1  UNL1        0.0897
      5 O           4.2283   -1.2906   -0.9073 O.3     1  UNL1       -0.4901
      6 C           2.9084   -1.1751   -0.8239 C.ar    1  UNL1        0.1418
      7 C           2.4140   -1.3161   -2.1347 C.ar    1  UNL1        0.0669
      8 N           3.1264   -1.5385   -3.3676 N.pl3   1  UNL1       -0.3551
      9 C           1.0434   -1.2507   -2.4294 C.ar    1  UNL1       -0.0367
     10 C           0.1708   -1.0406   -1.3842 C.ar    1  UNL1       -0.0458
     11 C           0.5886   -0.8950   -0.0821 C.ar    1  UNL1        0.0626
     12 C           1.9448   -0.9698    0.1371 C.ar    1  UNL1       -0.0041
     13 C          -0.2509   -0.6726    1.0862 C.2     1  UNL1        0.3393
     14 O           0.1701   -0.5417    2.2654 O.2     1  UNL1       -0.2450
     15 O          -1.6192   -0.6154    0.7708 O.3     1  UNL1       -0.4599
     16 C          -2.6209   -0.4073    1.7550 C.3     1  UNL1        0.1054
     17 C          -3.9805   -0.3922    1.1530 C.3     1  UNL1        0.0332
     18 N          -4.2855    0.5632    0.1837 N.3     1  UNL1       -0.2996
     19 C          -5.6204    0.5191   -0.3555 C.3     1  UNL1       -0.0038
     20 C          -5.8341   -0.7291   -1.1876 C.3     1  UNL1       -0.0524
     21 C          -3.7762    1.8899    0.3395 C.3     1  UNL1       -0.0038
     22 C          -4.4002    2.5980    1.4957 C.3     1  UNL1       -0.0524
     23 H           5.3133    2.6138    1.4921 H       1  UNL1        0.0230
     24 H           6.5901    1.6024    2.1669 H       1  UNL1        0.0230
     25 H           5.1680    1.9811    3.2013 H       1  UNL1        0.0230
     26 H           3.9101    0.9311    1.0303 H       1  UNL1        0.0264
     27 H           4.5151   -0.1160    2.4233 H       1  UNL1        0.0264
     28 H           6.0502    0.7992   -0.0795 H       1  UNL1        0.0298
     29 H           6.6773   -0.2909    1.1651 H       1  UNL1        0.0298
     30 H           6.2319   -1.5977   -0.7699 H       1  UNL1        0.0696
     31 H           5.2851   -2.1278    0.6070 H       1  UNL1        0.0696
     32 H           3.2548   -2.5020   -3.6863 H       1  UNL1        0.1424
     33 H           3.5861   -0.9541   -4.0862 H       1  UNL1        0.1424
     34 H           0.5474   -1.3409   -3.3660 H       1  UNL1        0.0637
     35 H          -0.9089   -0.9734   -1.4990 H       1  UNL1        0.0626
     36 H           2.3848   -0.8834    1.1146 H       1  UNL1        0.0663
     37 H          -2.3727    0.4691    2.3698 H       1  UNL1        0.0710
     38 H          -2.5467   -1.2812    2.4519 H       1  UNL1        0.0710
     39 H          -4.7379   -0.3501    1.9626 H       1  UNL1        0.0460
     40 H          -4.1312   -1.4143    0.6926 H       1  UNL1        0.0460
     41 H          -6.4047    0.6644    0.4179 H       1  UNL1        0.0424
     42 H          -5.7162    1.3836   -1.0651 H       1  UNL1        0.0424
     43 H          -6.5659   -0.5477   -2.0300 H       1  UNL1        0.0242
     44 H          -4.8544   -1.0655   -1.5629 H       1  UNL1        0.0242
     45 H          -6.3205   -1.4675   -0.5025 H       1  UNL1        0.0242
     46 H          -2.6914    1.8740    0.3033 H       1  UNL1        0.0424
     47 H          -4.0940    2.4361   -0.5958 H       1  UNL1        0.0424
     48 H          -4.6019    3.6611    1.2195 H       1  UNL1        0.0242
     49 H          -3.7724    2.6505    2.4092 H       1  UNL1        0.0242
     50 H          -5.3458    2.0980    1.8131 H       1  UNL1        0.0242
@<TRIPOS>BOND
     1     1     2    1
     2     2     3    1
     3     3     4    1
     4     4     5    1
     5     5     6    1
     6     6     7   ar
     7     7     8    1
     8     7     9   ar
     9     9    10   ar
    10    10    11   ar
    11    11    12   ar
    12    11    13    1
    13    13    14    2
    14    13    15    1
    15    15    16    1
    16    16    17    1
    17    17    18    1
    18    18    19    1
    19    19    20    1
    20    18    21    1
    21    21    22    1
    22    12     6   ar
    23     1    23    1
    24     1    24    1
    25     1    25    1
    26     2    26    1
    27     2    27    1
    28     3    28    1
    29     3    29    1
    30     4    30    1
    31     4    31    1
    32     8    32    1
    33     8    33    1
    34     9    34    1
    35    10    35    1
    36    12    36    1
    37    16    37    1
    38    16    38    1
    39    17    39    1
    40    17    40    1
    41    19    41    1
    42    19    42    1
    43    20    43    1
    44    20    44    1
    45    20    45    1
    46    21    46    1
    47    21    47    1
    48    22    48    1
    49    22    49    1
    50    22    50    1
