@<TRIPOS>MOLECULE
*****
 52 55 0 0 0
SMALL
GASTEIGER

@<TRIPOS>ATOM
      1 C          -8.5528    0.4673   -2.8615 C.3     1  UNL1       -0.0159
      2 C          -7.9131    0.1180   -1.5768 C.ar    1  UNL1        0.0756
      3 N          -7.1405   -0.7043   -1.0851 N.ar    1  UNL1       -0.2476
      4 C          -6.7027   -0.8266    0.0971 C.ar    1  UNL1        0.0657
      5 C          -5.7434   -1.9345    0.5260 C.3     1  UNL1        0.0548
      6 N          -4.3702   -1.5458    0.3106 N.am    1  UNL1       -0.3057
      7 C          -3.6612   -0.6721    1.1456 C.2     1  UNL1        0.2444
      8 O          -4.3126   -0.2176    2.1524 O.2     1  UNL1       -0.2702
      9 C          -2.2784   -0.2525    0.9617 C.ar    1  UNL1        0.0367
     10 C          -1.5426   -0.7026   -0.1035 C.ar    1  UNL1       -0.0491
     11 C          -0.2284   -0.2752   -0.2403 C.ar    1  UNL1       -0.0533
     12 C           0.3703    0.5914    0.6609 C.ar    1  UNL1       -0.0175
     13 C           1.7514    0.9491    0.3950 C.ar    1  UNL1       -0.0115
     14 C           2.6533   -0.0805    0.0972 C.ar    1  UNL1       -0.0415
     15 C           3.9829    0.1703   -0.1625 C.ar    1  UNL1        0.0400
     16 C           4.8938   -0.9247   -0.4688 C.2     1  UNL1        0.2444
     17 O           4.4542   -2.0996   -0.4901 O.2     1  UNL1       -0.2702
     18 N           6.2683   -0.7498   -0.7495 N.am    1  UNL1       -0.3085
     19 C           7.1359   -1.8983   -1.0517 C.3     1  UNL1        0.0235
     20 C           8.4098   -1.6645   -1.7445 C.3     1  UNL1       -0.0328
     21 C           8.4749   -1.8542   -0.2818 C.3     1  UNL1       -0.0328
     22 C           4.3826    1.4908   -0.1142 C.ar    1  UNL1       -0.0140
     23 C           3.5134    2.5176    0.1763 C.ar    1  UNL1        0.1276
     24 F           3.8786    3.8216    0.2308 F       1  UNL1       -0.2052
     25 C           2.1651    2.2478    0.4378 C.ar    1  UNL1       -0.0075
     26 C           1.2071    3.3298    0.7451 C.3     1  UNL1       -0.0364
     27 C          -0.3673    1.0316    1.7134 C.ar    1  UNL1       -0.0533
     28 C          -1.6896    0.6075    1.8594 C.ar    1  UNL1       -0.0491
     29 C          -7.1649    0.1464    1.0689 C.ar    1  UNL1        0.0002
     30 S          -8.2371    1.1245   -0.0432 S.2     1  UNL1       -0.0805
     31 H          -8.7946    1.5702   -2.8851 H       1  UNL1        0.0298
     32 H          -7.7903    0.3173   -3.6529 H       1  UNL1        0.0298
     33 H          -9.4304   -0.1580   -3.0878 H       1  UNL1        0.0298
     34 H          -5.9258   -2.1640    1.5988 H       1  UNL1        0.0527
     35 H          -5.9342   -2.8582   -0.0389 H       1  UNL1        0.0527
     36 H          -3.8609   -1.9436   -0.5323 H       1  UNL1        0.1494
     37 H          -1.9523   -1.3878   -0.8522 H       1  UNL1        0.0625
     38 H           0.3409   -0.6516   -1.1047 H       1  UNL1        0.0624
     39 H           2.2915   -1.1058    0.0708 H       1  UNL1        0.0631
     40 H           6.6611    0.2183   -0.7386 H       1  UNL1        0.1493
     41 H           6.6216   -2.8613   -1.0355 H       1  UNL1        0.0498
     42 H           8.5820   -0.6591   -2.1638 H       1  UNL1        0.0284
     43 H           8.8041   -2.5051   -2.3707 H       1  UNL1        0.0284
     44 H           8.6746   -0.9640    0.3437 H       1  UNL1        0.0284
     45 H           8.8093   -2.7978    0.1841 H       1  UNL1        0.0284
     46 H           5.4047    1.7570   -0.3061 H       1  UNL1        0.0654
     47 H           1.4791    4.2648    0.1815 H       1  UNL1        0.0279
     48 H           1.3247    3.6381    1.8187 H       1  UNL1        0.0279
     49 H           0.1737    3.1018    0.4961 H       1  UNL1        0.0279
     50 H           0.0845    1.7046    2.4303 H       1  UNL1        0.0624
     51 H          -2.2241    1.0019    2.7295 H       1  UNL1        0.0625
     52 H          -6.9759    0.2713    2.0598 H       1  UNL1        0.0712
@<TRIPOS>BOND
     1     1     2    1
     2     2     3   ar
     3     3     4   ar
     4     4     5    1
     5     5     6    1
     6     6     7   am
     7     7     8    2
     8     7     9    1
     9     9    10   ar
    10    10    11   ar
    11    11    12   ar
    12    12    13    1
    13    13    14   ar
    14    14    15   ar
    15    15    16    1
    16    16    17    2
    17    16    18   am
    18    18    19    1
    19    19    20    1
    20    20    21    1
    21    15    22   ar
    22    22    23   ar
    23    23    24    1
    24    23    25   ar
    25    25    26    1
    26    12    27   ar
    27    27    28   ar
    28     4    29   ar
    29    29    30   ar
    30    30     2   ar
    31    28     9   ar
    32    25    13   ar
    33    21    19    1
    34     1    31    1
    35     1    32    1
    36     1    33    1
    37     5    34    1
    38     5    35    1
    39     6    36    1
    40    10    37    1
    41    11    38    1
    42    14    39    1
    43    18    40    1
    44    19    41    1
    45    20    42    1
    46    20    43    1
    47    21    44    1
    48    21    45    1
    49    22    46    1
    50    26    47    1
    51    26    48    1
    52    26    49    1
    53    27    50    1
    54    28    51    1
    55    29    52    1
