
     RDKit          3D

 52 55  0  0  0  0  0  0  0  0999 V2000
   -8.5528    0.4673   -2.8615 C   0  0  0  0  0  0  0  0  0  0  0  0
   -7.9131    0.1180   -1.5768 C   0  0  0  0  0  0  0  0  0  0  0  0
   -7.1405   -0.7043   -1.0851 N   0  0  0  0  0  0  0  0  0  0  0  0
   -6.7027   -0.8266    0.0971 C   0  0  0  0  0  0  0  0  0  0  0  0
   -5.7434   -1.9345    0.5260 C   0  0  0  0  0  0  0  0  0  0  0  0
   -4.3702   -1.5458    0.3106 N   0  0  0  0  0  0  0  0  0  0  0  0
   -3.6612   -0.6721    1.1456 C   0  0  0  0  0  0  0  0  0  0  0  0
   -4.3126   -0.2176    2.1524 O   0  0  0  0  0  0  0  0  0  0  0  0
   -2.2784   -0.2525    0.9617 C   0  0  0  0  0  0  0  0  0  0  0  0
   -1.5426   -0.7026   -0.1035 C   0  0  0  0  0  0  0  0  0  0  0  0
   -0.2284   -0.2752   -0.2403 C   0  0  0  0  0  0  0  0  0  0  0  0
    0.3703    0.5914    0.6609 C   0  0  0  0  0  0  0  0  0  0  0  0
    1.7514    0.9491    0.3950 C   0  0  0  0  0  0  0  0  0  0  0  0
    2.6533   -0.0805    0.0972 C   0  0  0  0  0  0  0  0  0  0  0  0
    3.9829    0.1703   -0.1625 C   0  0  0  0  0  0  0  0  0  0  0  0
    4.8938   -0.9247   -0.4688 C   0  0  0  0  0  0  0  0  0  0  0  0
    4.4542   -2.0996   -0.4901 O   0  0  0  0  0  0  0  0  0  0  0  0
    6.2683   -0.7498   -0.7495 N   0  0  0  0  0  0  0  0  0  0  0  0
    7.1359   -1.8983   -1.0517 C   0  0  0  0  0  0  0  0  0  0  0  0
    8.4098   -1.6645   -1.7445 C   0  0  0  0  0  0  0  0  0  0  0  0
    8.4749   -1.8542   -0.2818 C   0  0  0  0  0  0  0  0  0  0  0  0
    4.3826    1.4908   -0.1142 C   0  0  0  0  0  0  0  0  0  0  0  0
    3.5134    2.5176    0.1763 C   0  0  0  0  0  0  0  0  0  0  0  0
    3.8786    3.8216    0.2308 F   0  0  0  0  0  0  0  0  0  0  0  0
    2.1651    2.2478    0.4378 C   0  0  0  0  0  0  0  0  0  0  0  0
    1.2071    3.3298    0.7451 C   0  0  0  0  0  0  0  0  0  0  0  0
   -0.3673    1.0316    1.7134 C   0  0  0  0  0  0  0  0  0  0  0  0
   -1.6896    0.6075    1.8594 C   0  0  0  0  0  0  0  0  0  0  0  0
   -7.1649    0.1464    1.0689 C   0  0  0  0  0  0  0  0  0  0  0  0
   -8.2371    1.1245   -0.0432 S   0  0  0  0  0  0  0  0  0  0  0  0
   -8.7946    1.5702   -2.8851 H   0  0  0  0  0  0  0  0  0  0  0  0
   -7.7903    0.3173   -3.6529 H   0  0  0  0  0  0  0  0  0  0  0  0
   -9.4304   -0.1580   -3.0878 H   0  0  0  0  0  0  0  0  0  0  0  0
   -5.9258   -2.1640    1.5988 H   0  0  0  0  0  0  0  0  0  0  0  0
   -5.9342   -2.8582   -0.0389 H   0  0  0  0  0  0  0  0  0  0  0  0
   -3.8609   -1.9436   -0.5323 H   0  0  0  0  0  0  0  0  0  0  0  0
   -1.9523   -1.3878   -0.8522 H   0  0  0  0  0  0  0  0  0  0  0  0
    0.3409   -0.6516   -1.1047 H   0  0  0  0  0  0  0  0  0  0  0  0
    2.2915   -1.1058    0.0708 H   0  0  0  0  0  0  0  0  0  0  0  0
    6.6611    0.2183   -0.7386 H   0  0  0  0  0  0  0  0  0  0  0  0
    6.6216   -2.8613   -1.0355 H   0  0  0  0  0  0  0  0  0  0  0  0
    8.5820   -0.6591   -2.1638 H   0  0  0  0  0  0  0  0  0  0  0  0
    8.8041   -2.5051   -2.3707 H   0  0  0  0  0  0  0  0  0  0  0  0
    8.6746   -0.9640    0.3437 H   0  0  0  0  0  0  0  0  0  0  0  0
    8.8093   -2.7978    0.1841 H   0  0  0  0  0  0  0  0  0  0  0  0
    5.4047    1.7570   -0.3061 H   0  0  0  0  0  0  0  0  0  0  0  0
    1.4791    4.2648    0.1815 H   0  0  0  0  0  0  0  0  0  0  0  0
    1.3247    3.6381    1.8187 H   0  0  0  0  0  0  0  0  0  0  0  0
    0.1737    3.1018    0.4961 H   0  0  0  0  0  0  0  0  0  0  0  0
    0.0845    1.7046    2.4303 H   0  0  0  0  0  0  0  0  0  0  0  0
   -2.2241    1.0019    2.7295 H   0  0  0  0  0  0  0  0  0  0  0  0
   -6.9759    0.2713    2.0598 H   0  0  0  0  0  0  0  0  0  0  0  0
  1  2  1  0
  2  3  2  0
  3  4  1  0
  4  5  1  0
  5  6  1  0
  6  7  1  0
  7  8  2  0
  7  9  1  0
  9 10  2  0
 10 11  1  0
 11 12  2  0
 12 13  1  0
 13 14  2  0
 14 15  1  0
 15 16  1  0
 16 17  2  0
 16 18  1  0
 18 19  1  0
 19 20  1  0
 20 21  1  0
 15 22  2  0
 22 23  1  0
 23 24  1  0
 23 25  2  0
 25 26  1  0
 12 27  1  0
 27 28  2  0
  4 29  2  0
 29 30  1  0
 30  2  1  0
 28  9  1  0
 25 13  1  0
 21 19  1  0
  1 31  1  0
  1 32  1  0
  1 33  1  0
  5 34  1  0
  5 35  1  0
  6 36  1  0
 10 37  1  0
 11 38  1  0
 14 39  1  0
 18 40  1  0
 19 41  1  0
 20 42  1  0
 20 43  1  0
 21 44  1  0
 21 45  1  0
 22 46  1  0
 26 47  1  0
 26 48  1  0
 26 49  1  0
 27 50  1  0
 28 51  1  0
 29 52  1  0
M  END
$$$$
