
     RDKit          3D

 22 21  0  0  0  0  0  0  0  0999 V2000
   -2.2948    0.0860    0.6967 C   0  0  0  0  0  0  0  0  0  0  0  0
   -1.5171    0.7269   -0.4223 C   0  0  0  0  0  0  0  0  0  0  0  0
   -0.1616    0.1649   -0.6194 C   0  0  2  0  0  0  0  0  0  0  0  0
   -0.3175   -1.3072   -0.9383 C   0  0  0  0  0  0  0  0  0  0  0  0
    0.7658    0.3143    0.5437 C   0  0  2  0  0  0  0  0  0  0  0  0
    1.0184    1.6603    0.9338 N   0  0  0  0  0  0  0  0  0  0  0  0
    2.0799   -0.3265    0.2813 C   0  0  0  0  0  0  0  0  0  0  0  0
    2.6688   -1.4980   -0.1014 O   0  0  0  0  0  0  0  0  0  0  0  0
    3.1113    0.4010    0.4440 O   0  0  0  0  0  0  0  0  0  0  0  0
   -3.2793    0.5919    0.7568 H   0  0  0  0  0  0  0  0  0  0  0  0
   -1.7771    0.1370    1.6694 H   0  0  0  0  0  0  0  0  0  0  0  0
   -2.4922   -0.9579    0.4380 H   0  0  0  0  0  0  0  0  0  0  0  0
   -1.5436    1.8384   -0.3586 H   0  0  0  0  0  0  0  0  0  0  0  0
   -2.0918    0.4840   -1.3578 H   0  0  0  0  0  0  0  0  0  0  0  0
    0.2975    0.6488   -1.4922 H   0  0  0  0  0  0  0  0  0  0  0  0
   -0.6404   -1.7853    0.0247 H   0  0  0  0  0  0  0  0  0  0  0  0
    0.6594   -1.6900   -1.2798 H   0  0  0  0  0  0  0  0  0  0  0  0
   -1.1207   -1.4871   -1.6810 H   0  0  0  0  0  0  0  0  0  0  0  0
    0.3452   -0.2059    1.4361 H   0  0  0  0  0  0  0  0  0  0  0  0
    1.6029    1.6108    1.8150 H   0  0  0  0  0  0  0  0  0  0  0  0
    1.6295    2.1669    0.2544 H   0  0  0  0  0  0  0  0  0  0  0  0
    3.0576   -1.5731   -1.0431 H   0  0  0  0  0  0  0  0  0  0  0  0
  1  2  1  0
  2  3  1  0
  3  4  1  0
  3  5  1  0
  5  6  1  0
  5  7  1  0
  7  8  1  0
  7  9  2  0
  1 10  1  0
  1 11  1  0
  1 12  1  0
  2 13  1  0
  2 14  1  0
  3 15  1  6
  4 16  1  0
  4 17  1  0
  4 18  1  0
  5 19  1  1
  6 20  1  0
  6 21  1  0
  8 22  1  0
M  END
$$$$
